$DATA1 SOURCE='HSPICE' VERSION='P-2019.06-SP1-1 win64' PARAM_COUNT=1
.TITLE 'hold_sweep'
 t_hold           q_min            temper           alter#          
  2.000e-10          1.7953          25.0000        4               
  1.990e-10          1.7954          25.0000        4               
  1.980e-10          1.7954          25.0000        4               
  1.970e-10          1.7954          25.0000        4               
  1.960e-10          1.7955          25.0000        4               
  1.950e-10          1.7955          25.0000        4               
  1.940e-10          1.7956          25.0000        4               
  1.930e-10          1.7956          25.0000        4               
  1.920e-10          1.7957          25.0000        4               
  1.910e-10          1.7957          25.0000        4               
  1.900e-10          1.7957          25.0000        4               
  1.890e-10          1.7958          25.0000        4               
  1.880e-10          1.7958          25.0000        4               
  1.870e-10          1.7958          25.0000        4               
  1.860e-10          1.7958          25.0000        4               
  1.850e-10          1.7958          25.0000        4               
  1.840e-10          1.7958          25.0000        4               
  1.830e-10          1.7958          25.0000        4               
  1.820e-10          1.7958          25.0000        4               
  1.810e-10          1.7958          25.0000        4               
  1.800e-10          1.7958          25.0000        4               
  1.790e-10          1.7958          25.0000        4               
  1.780e-10          1.7958          25.0000        4               
  1.770e-10          1.7958          25.0000        4               
  1.760e-10          1.7958          25.0000        4               
  1.750e-10          1.7958          25.0000        4               
  1.740e-10          1.7958          25.0000        4               
  1.730e-10          1.7958          25.0000        4               
  1.720e-10          1.7958          25.0000        4               
  1.710e-10          1.7958          25.0000        4               
  1.700e-10          1.7958          25.0000        4               
  1.690e-10          1.7958          25.0000        4               
  1.680e-10          1.7958          25.0000        4               
  1.670e-10          1.7958          25.0000        4               
  1.660e-10          1.7958          25.0000        4               
  1.650e-10          1.7958          25.0000        4               
  1.640e-10          1.7958          25.0000        4               
  1.630e-10          1.7958          25.0000        4               
  1.620e-10          1.7958          25.0000        4               
  1.610e-10          1.7958          25.0000        4               
  1.600e-10          1.7958          25.0000        4               
  1.590e-10          1.7958          25.0000        4               
  1.580e-10          1.7958          25.0000        4               
  1.570e-10          1.7958          25.0000        4               
  1.560e-10          1.7958          25.0000        4               
  1.550e-10          1.7958          25.0000        4               
  1.540e-10          1.7958          25.0000        4               
  1.530e-10          1.7958          25.0000        4               
  1.520e-10          1.7958          25.0000        4               
  1.510e-10          1.7958          25.0000        4               
  1.500e-10          1.7958          25.0000        4               
  1.490e-10          1.7958          25.0000        4               
  1.480e-10          1.7958          25.0000        4               
  1.470e-10          1.7958          25.0000        4               
  1.460e-10          1.7958          25.0000        4               
  1.450e-10          1.7958          25.0000        4               
  1.440e-10          1.7958          25.0000        4               
  1.430e-10          1.7958          25.0000        4               
  1.420e-10          1.7958          25.0000        4               
  1.410e-10          1.7958          25.0000        4               
  1.400e-10          1.7958          25.0000        4               
  1.390e-10          1.7958          25.0000        4               
  1.380e-10          1.7958          25.0000        4               
  1.370e-10          1.7958          25.0000        4               
  1.360e-10          1.7958          25.0000        4               
  1.350e-10          1.7958          25.0000        4               
  1.340e-10          1.7958          25.0000        4               
  1.330e-10          1.7958          25.0000        4               
  1.320e-10          1.7958          25.0000        4               
  1.310e-10          1.7958          25.0000        4               
  1.300e-10          1.7958          25.0000        4               
  1.290e-10          1.7958          25.0000        4               
  1.280e-10          1.7958          25.0000        4               
  1.270e-10          1.7958          25.0000        4               
  1.260e-10          1.7958          25.0000        4               
  1.250e-10          1.7958          25.0000        4               
  1.240e-10          1.7958          25.0000        4               
  1.230e-10          1.7958          25.0000        4               
  1.220e-10          1.7958          25.0000        4               
  1.210e-10          1.7958          25.0000        4               
  1.200e-10          1.7958          25.0000        4               
  1.190e-10          1.7958          25.0000        4               
  1.180e-10          1.7958          25.0000        4               
  1.170e-10          1.7958          25.0000        4               
  1.160e-10          1.7958          25.0000        4               
  1.150e-10          1.7958          25.0000        4               
  1.140e-10          1.7958          25.0000        4               
  1.130e-10          1.7958          25.0000        4               
  1.120e-10          1.7958          25.0000        4               
  1.110e-10          1.7958          25.0000        4               
  1.100e-10          1.7958          25.0000        4               
  1.090e-10          1.7958          25.0000        4               
  1.080e-10          1.7958          25.0000        4               
  1.070e-10          1.7958          25.0000        4               
  1.060e-10          1.7958          25.0000        4               
  1.050e-10          1.7958          25.0000        4               
  1.040e-10          1.7958          25.0000        4               
  1.030e-10          1.7958          25.0000        4               
  1.020e-10          1.7958          25.0000        4               
  1.010e-10          1.7958          25.0000        4               
  1.000e-10          1.7958          25.0000        4               
  9.900e-11          1.7958          25.0000        4               
  9.800e-11          1.7958          25.0000        4               
  9.700e-11          1.7958          25.0000        4               
  9.600e-11          1.7958          25.0000        4               
  9.500e-11          1.7958          25.0000        4               
  9.400e-11          1.7958          25.0000        4               
  9.300e-11          1.7958          25.0000        4               
  9.200e-11          1.7958          25.0000        4               
  9.100e-11          1.7958          25.0000        4               
  9.000e-11          1.7958          25.0000        4               
  8.900e-11          1.7958          25.0000        4               
  8.800e-11          1.7958          25.0000        4               
  8.700e-11          1.7958          25.0000        4               
  8.600e-11          1.7958          25.0000        4               
  8.500e-11          1.7958          25.0000        4               
  8.400e-11          1.7958          25.0000        4               
  8.300e-11          1.7958          25.0000        4               
  8.200e-11          1.7958          25.0000        4               
  8.100e-11          1.7958          25.0000        4               
  8.000e-11          1.7958          25.0000        4               
  7.900e-11          1.7958          25.0000        4               
  7.800e-11          1.7958          25.0000        4               
  7.700e-11          1.7958          25.0000        4               
  7.600e-11          1.7958          25.0000        4               
  7.500e-11          1.7958          25.0000        4               
  7.400e-11          1.7958          25.0000        4               
  7.300e-11          1.7958          25.0000        4               
  7.200e-11          1.7958          25.0000        4               
  7.100e-11          1.7958          25.0000        4               
  7.000e-11          1.7958          25.0000        4               
  6.900e-11          1.7958          25.0000        4               
  6.800e-11          1.7958          25.0000        4               
  6.700e-11          1.7958          25.0000        4               
  6.600e-11          1.7958          25.0000        4               
  6.500e-11          1.7958          25.0000        4               
  6.400e-11          1.7958          25.0000        4               
  6.300e-11          1.7958          25.0000        4               
  6.200e-11          1.7958          25.0000        4               
  6.100e-11          1.7958          25.0000        4               
  6.000e-11          1.7958          25.0000        4               
  5.900e-11          1.7958          25.0000        4               
  5.800e-11          1.7958          25.0000        4               
  5.700e-11          1.7958          25.0000        4               
  5.600e-11          1.7958          25.0000        4               
  5.500e-11          1.7958          25.0000        4               
  5.400e-11          1.7958          25.0000        4               
  5.300e-11          1.7958          25.0000        4               
  5.200e-11          1.7958          25.0000        4               
  5.100e-11          1.7958          25.0000        4               
  5.000e-11          1.7958          25.0000        4               
  4.900e-11          1.7958          25.0000        4               
  4.800e-11          1.7958          25.0000        4               
  4.700e-11          1.7958          25.0000        4               
  4.600e-11          1.7958          25.0000        4               
  4.500e-11          1.7958          25.0000        4               
  4.400e-11          1.7958          25.0000        4               
  4.300e-11          1.7958          25.0000        4               
  4.200e-11          1.7958          25.0000        4               
  4.100e-11          1.7958          25.0000        4               
  4.000e-11          1.7958          25.0000        4               
  3.900e-11          1.7958          25.0000        4               
  3.800e-11          1.7958          25.0000        4               
  3.700e-11          1.7958          25.0000        4               
  3.600e-11          1.7958          25.0000        4               
  3.500e-11          1.7958          25.0000        4               
  3.400e-11          1.7958          25.0000        4               
  3.300e-11          1.7958          25.0000        4               
  3.200e-11          1.7958          25.0000        4               
  3.100e-11          1.7958          25.0000        4               
  3.000e-11          1.7958          25.0000        4               
  2.900e-11          1.7958          25.0000        4               
  2.800e-11          1.7958          25.0000        4               
  2.700e-11          1.7958          25.0000        4               
  2.600e-11          1.7958          25.0000        4               
  2.500e-11          1.7958          25.0000        4               
  2.400e-11          1.7958          25.0000        4               
  2.300e-11          1.7958          25.0000        4               
  2.200e-11          1.7958          25.0000        4               
  2.100e-11          1.7958          25.0000        4               
  2.000e-11          1.7958          25.0000        4               
  1.900e-11          1.7958          25.0000        4               
  1.800e-11          1.7958          25.0000        4               
  1.700e-11          1.7958          25.0000        4               
  1.600e-11          1.7958          25.0000        4               
  1.500e-11          1.7958          25.0000        4               
  1.400e-11          1.7947          25.0000        4               
  1.300e-11          1.7934          25.0000        4               
  1.200e-11          1.7923          25.0000        4               
  1.100e-11          1.7913          25.0000        4               
  1.000e-11          1.7905          25.0000        4               
  9.000e-12          1.7899          25.0000        4               
  8.000e-12          1.7894          25.0000        4               
  7.000e-12          1.7891          25.0000        4               
  6.000e-12          1.7886          25.0000        4               
  5.000e-12          1.7883          25.0000        4               
  4.000e-12          1.7879          25.0000        4               
  3.000e-12          1.7876          25.0000        4               
  2.000e-12          1.7876          25.0000        4               
  1.000e-12          1.7875          25.0000        4               
    0.               1.7875          25.0000        4               
 -1.000e-12          1.7876          25.0000        4               
 -2.000e-12          1.7879          25.0000        4               
 -3.000e-12          1.7881          25.0000        4               
 -4.000e-12          1.7886          25.0000        4               
 -5.000e-12          1.7890          25.0000        4               
 -6.000e-12          1.7895          25.0000        4               
 -7.000e-12          1.7900          25.0000        4               
 -8.000e-12          1.7905          25.0000        4               
 -9.000e-12          1.7910          25.0000        4               
 -1.000e-11          1.7916          25.0000        4               
 -1.100e-11          1.7920          25.0000        4               
 -1.200e-11          1.7920          25.0000        4               
 -1.300e-11          1.7920          25.0000        4               
 -1.400e-11          1.7920          25.0000        4               
 -1.500e-11          1.7920          25.0000        4               
 -1.600e-11          1.7920          25.0000        4               
 -1.700e-11          1.7920          25.0000        4               
 -1.800e-11          1.7920          25.0000        4               
 -1.900e-11          1.7920          25.0000        4               
 -2.000e-11          1.7920          25.0000        4               
 -2.100e-11          1.7920          25.0000        4               
 -2.200e-11          1.7920          25.0000        4               
 -2.300e-11          1.7920          25.0000        4               
 -2.400e-11          1.7920          25.0000        4               
 -2.500e-11          1.7920          25.0000        4               
 -2.600e-11          1.7920          25.0000        4               
 -2.700e-11          1.7920          25.0000        4               
 -2.800e-11          1.7920          25.0000        4               
 -2.900e-11          1.7920          25.0000        4               
 -3.000e-11          1.7920          25.0000        4               
 -3.100e-11          1.7920          25.0000        4               
 -3.200e-11          1.7920          25.0000        4               
 -3.300e-11          1.7920          25.0000        4               
 -3.400e-11          1.7920          25.0000        4               
 -3.500e-11          1.7921          25.0000        4               
 -3.600e-11          1.7921          25.0000        4               
 -3.700e-11          1.7921          25.0000        4               
 -3.800e-11          1.7921          25.0000        4               
 -3.900e-11          1.7921          25.0000        4               
 -4.000e-11          1.7921          25.0000        4               
 -4.100e-11          1.7921          25.0000        4               
 -4.200e-11          1.7921          25.0000        4               
 -4.300e-11          1.7921          25.0000        4               
 -4.400e-11          1.7921          25.0000        4               
 -4.500e-11          1.7921          25.0000        4               
 -4.600e-11          1.7921          25.0000        4               
 -4.700e-11          1.7921          25.0000        4               
 -4.800e-11          1.7921          25.0000        4               
 -4.900e-11          1.7921          25.0000        4               
 -5.000e-11          1.7921          25.0000        4               
 -5.100e-11          1.7921          25.0000        4               
 -5.200e-11          1.7921          25.0000        4               
 -5.300e-11          1.7921          25.0000        4               
 -5.400e-11          1.7921          25.0000        4               
 -5.500e-11          1.7922          25.0000        4               
 -5.600e-11          1.7922          25.0000        4               
 -5.700e-11          1.7922          25.0000        4               
 -5.800e-11          1.7922          25.0000        4               
 -5.900e-11          1.7922          25.0000        4               
 -6.000e-11          1.7922          25.0000        4               
 -6.100e-11          1.7922          25.0000        4               
 -6.200e-11          1.7922          25.0000        4               
 -6.300e-11          1.7922          25.0000        4               
 -6.400e-11          1.7922          25.0000        4               
 -6.500e-11          1.7922          25.0000        4               
 -6.600e-11          1.7922          25.0000        4               
 -6.700e-11          1.7923          25.0000        4               
 -6.800e-11          1.7923          25.0000        4               
 -6.900e-11          1.7923          25.0000        4               
 -7.000e-11          1.7923          25.0000        4               
 -7.100e-11          1.7922          25.0000        4               
 -7.200e-11          1.7907          25.0000        4               
 -7.300e-11          1.7886          25.0000        4               
 -7.400e-11          1.7864          25.0000        4               
 -7.500e-11          1.7837          25.0000        4               
 -7.600e-11          1.7802          25.0000        4               
 -7.700e-11          1.7716          25.0000        4               
 -7.800e-11          1.7570          25.0000        4               
 -7.900e-11          1.7391          25.0000        4               
 -8.000e-11          1.7164          25.0000        4               
 -8.100e-11          1.6866          25.0000        4               
 -8.200e-11          1.6481          25.0000        4               
 -8.300e-11          1.6052          25.0000        4               
 -8.400e-11          1.5574          25.0000        4               
 -8.500e-11          1.5013          25.0000        4               
 -8.600e-11          1.4405          25.0000        4               
 -8.700e-11          1.3726          25.0000        4               
 -8.800e-11          1.2937          25.0000        4               
 -8.900e-11          1.2094          25.0000        4               
 -9.000e-11          1.1178          25.0000        4               
 -9.100e-11          1.0193          25.0000        4               
 -9.200e-11          0.9165          25.0000        4               
 -9.300e-11          0.8090          25.0000        4               
 -9.400e-11        8.995e-06         25.0000        4               
 -9.500e-11        9.552e-06         25.0000        4               
 -9.600e-11        8.963e-06         25.0000        4               
 -9.700e-11        5.707e-06         25.0000        4               
 -9.800e-11        7.072e-06         25.0000        4               
 -9.900e-11        8.468e-06         25.0000        4               
 -1.000e-10        9.012e-06         25.0000        4               
 -9.900e-11        8.468e-06         25.0000        4               
 -9.800e-11        7.072e-06         25.0000        4               
 -9.700e-11        5.707e-06         25.0000        4               
 -9.600e-11        8.963e-06         25.0000        4               
 -9.500e-11        9.552e-06         25.0000        4               
 -9.400e-11        8.995e-06         25.0000        4               
 -9.300e-11          0.8090          25.0000        4               
 -9.200e-11          0.9165          25.0000        4               
 -9.100e-11          1.0193          25.0000        4               
 -9.000e-11          1.1178          25.0000        4               
 -8.900e-11          1.2094          25.0000        4               
 -8.800e-11          1.2937          25.0000        4               
 -8.700e-11          1.3726          25.0000        4               
 -8.600e-11          1.4405          25.0000        4               
 -8.500e-11          1.5013          25.0000        4               
 -8.400e-11          1.5574          25.0000        4               
 -8.300e-11          1.6052          25.0000        4               
 -8.200e-11          1.6481          25.0000        4               
 -8.100e-11          1.6866          25.0000        4               
 -8.000e-11          1.7164          25.0000        4               
 -7.900e-11          1.7391          25.0000        4               
 -7.800e-11          1.7570          25.0000        4               
 -7.700e-11          1.7716          25.0000        4               
 -7.600e-11          1.7802          25.0000        4               
 -7.500e-11          1.7837          25.0000        4               
 -7.400e-11          1.7864          25.0000        4               
 -7.300e-11          1.7886          25.0000        4               
 -7.200e-11          1.7907          25.0000        4               
 -7.100e-11          1.7922          25.0000        4               
 -7.000e-11          1.7923          25.0000        4               
 -6.900e-11          1.7923          25.0000        4               
 -6.800e-11          1.7923          25.0000        4               
 -6.700e-11          1.7923          25.0000        4               
 -6.600e-11          1.7922          25.0000        4               
 -6.500e-11          1.7922          25.0000        4               
 -6.400e-11          1.7922          25.0000        4               
 -6.300e-11          1.7922          25.0000        4               
 -6.200e-11          1.7922          25.0000        4               
 -6.100e-11          1.7922          25.0000        4               
 -6.000e-11          1.7922          25.0000        4               
 -5.900e-11          1.7922          25.0000        4               
 -5.800e-11          1.7922          25.0000        4               
 -5.700e-11          1.7922          25.0000        4               
 -5.600e-11          1.7922          25.0000        4               
 -5.500e-11          1.7922          25.0000        4               
 -5.400e-11          1.7921          25.0000        4               
 -5.300e-11          1.7921          25.0000        4               
 -5.200e-11          1.7921          25.0000        4               
 -5.100e-11          1.7921          25.0000        4               
 -5.000e-11          1.7921          25.0000        4               
 -4.900e-11          1.7921          25.0000        4               
 -4.800e-11          1.7921          25.0000        4               
 -4.700e-11          1.7921          25.0000        4               
 -4.600e-11          1.7921          25.0000        4               
 -4.500e-11          1.7921          25.0000        4               
 -4.400e-11          1.7921          25.0000        4               
 -4.300e-11          1.7921          25.0000        4               
 -4.200e-11          1.7921          25.0000        4               
 -4.100e-11          1.7921          25.0000        4               
 -4.000e-11          1.7921          25.0000        4               
 -3.900e-11          1.7921          25.0000        4               
 -3.800e-11          1.7921          25.0000        4               
 -3.700e-11          1.7921          25.0000        4               
 -3.600e-11          1.7921          25.0000        4               
 -3.500e-11          1.7921          25.0000        4               
 -3.400e-11          1.7920          25.0000        4               
 -3.300e-11          1.7920          25.0000        4               
 -3.200e-11          1.7920          25.0000        4               
 -3.100e-11          1.7920          25.0000        4               
 -3.000e-11          1.7920          25.0000        4               
 -2.900e-11          1.7920          25.0000        4               
 -2.800e-11          1.7920          25.0000        4               
 -2.700e-11          1.7920          25.0000        4               
 -2.600e-11          1.7920          25.0000        4               
 -2.500e-11          1.7920          25.0000        4               
 -2.400e-11          1.7920          25.0000        4               
 -2.300e-11          1.7920          25.0000        4               
 -2.200e-11          1.7920          25.0000        4               
 -2.100e-11          1.7920          25.0000        4               
 -2.000e-11          1.7920          25.0000        4               
 -1.900e-11          1.7920          25.0000        4               
 -1.800e-11          1.7920          25.0000        4               
 -1.700e-11          1.7920          25.0000        4               
 -1.600e-11          1.7920          25.0000        4               
 -1.500e-11          1.7920          25.0000        4               
 -1.400e-11          1.7920          25.0000        4               
 -1.300e-11          1.7920          25.0000        4               
 -1.200e-11          1.7920          25.0000        4               
 -1.100e-11          1.7920          25.0000        4               
 -1.000e-11          1.7916          25.0000        4               
 -9.000e-12          1.7910          25.0000        4               
 -8.000e-12          1.7905          25.0000        4               
 -7.000e-12          1.7900          25.0000        4               
 -6.000e-12          1.7895          25.0000        4               
 -5.000e-12          1.7890          25.0000        4               
 -4.000e-12          1.7886          25.0000        4               
 -3.000e-12          1.7881          25.0000        4               
 -2.000e-12          1.7879          25.0000        4               
 -1.000e-12          1.7876          25.0000        4               
    0.               1.7875          25.0000        4               
  1.000e-12          1.7875          25.0000        4               
  2.000e-12          1.7876          25.0000        4               
  3.000e-12          1.7876          25.0000        4               
  4.000e-12          1.7879          25.0000        4               
  5.000e-12          1.7883          25.0000        4               
  6.000e-12          1.7886          25.0000        4               
  7.000e-12          1.7891          25.0000        4               
  8.000e-12          1.7894          25.0000        4               
  9.000e-12          1.7899          25.0000        4               
  1.000e-11          1.7905          25.0000        4               
  1.100e-11          1.7913          25.0000        4               
  1.200e-11          1.7923          25.0000        4               
  1.300e-11          1.7934          25.0000        4               
  1.400e-11          1.7947          25.0000        4               
  1.500e-11          1.7958          25.0000        4               
  1.600e-11          1.7958          25.0000        4               
  1.700e-11          1.7958          25.0000        4               
  1.800e-11          1.7958          25.0000        4               
  1.900e-11          1.7958          25.0000        4               
  2.000e-11          1.7958          25.0000        4               
  2.100e-11          1.7958          25.0000        4               
  2.200e-11          1.7958          25.0000        4               
  2.300e-11          1.7958          25.0000        4               
  2.400e-11          1.7958          25.0000        4               
  2.500e-11          1.7958          25.0000        4               
  2.600e-11          1.7958          25.0000        4               
  2.700e-11          1.7958          25.0000        4               
  2.800e-11          1.7958          25.0000        4               
  2.900e-11          1.7958          25.0000        4               
  3.000e-11          1.7958          25.0000        4               
  3.100e-11          1.7958          25.0000        4               
  3.200e-11          1.7958          25.0000        4               
  3.300e-11          1.7958          25.0000        4               
  3.400e-11          1.7958          25.0000        4               
  3.500e-11          1.7958          25.0000        4               
  3.600e-11          1.7958          25.0000        4               
  3.700e-11          1.7958          25.0000        4               
  3.800e-11          1.7958          25.0000        4               
  3.900e-11          1.7958          25.0000        4               
  4.000e-11          1.7958          25.0000        4               
  4.100e-11          1.7958          25.0000        4               
  4.200e-11          1.7958          25.0000        4               
  4.300e-11          1.7958          25.0000        4               
  4.400e-11          1.7958          25.0000        4               
  4.500e-11          1.7958          25.0000        4               
  4.600e-11          1.7958          25.0000        4               
  4.700e-11          1.7958          25.0000        4               
  4.800e-11          1.7958          25.0000        4               
  4.900e-11          1.7958          25.0000        4               
  5.000e-11          1.7958          25.0000        4               
  5.100e-11          1.7958          25.0000        4               
  5.200e-11          1.7958          25.0000        4               
  5.300e-11          1.7958          25.0000        4               
  5.400e-11          1.7958          25.0000        4               
  5.500e-11          1.7958          25.0000        4               
  5.600e-11          1.7958          25.0000        4               
  5.700e-11          1.7958          25.0000        4               
  5.800e-11          1.7958          25.0000        4               
  5.900e-11          1.7958          25.0000        4               
  6.000e-11          1.7958          25.0000        4               
  6.100e-11          1.7958          25.0000        4               
  6.200e-11          1.7958          25.0000        4               
  6.300e-11          1.7958          25.0000        4               
  6.400e-11          1.7958          25.0000        4               
  6.500e-11          1.7958          25.0000        4               
  6.600e-11          1.7958          25.0000        4               
  6.700e-11          1.7958          25.0000        4               
  6.800e-11          1.7958          25.0000        4               
  6.900e-11          1.7958          25.0000        4               
  7.000e-11          1.7958          25.0000        4               
  7.100e-11          1.7958          25.0000        4               
  7.200e-11          1.7958          25.0000        4               
  7.300e-11          1.7958          25.0000        4               
  7.400e-11          1.7958          25.0000        4               
  7.500e-11          1.7958          25.0000        4               
  7.600e-11          1.7958          25.0000        4               
  7.700e-11          1.7958          25.0000        4               
  7.800e-11          1.7958          25.0000        4               
  7.900e-11          1.7958          25.0000        4               
  8.000e-11          1.7958          25.0000        4               
  8.100e-11          1.7958          25.0000        4               
  8.200e-11          1.7958          25.0000        4               
  8.300e-11          1.7958          25.0000        4               
  8.400e-11          1.7958          25.0000        4               
  8.500e-11          1.7958          25.0000        4               
  8.600e-11          1.7958          25.0000        4               
  8.700e-11          1.7958          25.0000        4               
  8.800e-11          1.7958          25.0000        4               
  8.900e-11          1.7958          25.0000        4               
  9.000e-11          1.7958          25.0000        4               
  9.100e-11          1.7958          25.0000        4               
  9.200e-11          1.7958          25.0000        4               
  9.300e-11          1.7958          25.0000        4               
  9.400e-11          1.7958          25.0000        4               
  9.500e-11          1.7958          25.0000        4               
  9.600e-11          1.7958          25.0000        4               
  9.700e-11          1.7958          25.0000        4               
  9.800e-11          1.7958          25.0000        4               
  9.900e-11          1.7958          25.0000        4               
  1.000e-10          1.7958          25.0000        4               
  1.010e-10          1.7958          25.0000        4               
  1.020e-10          1.7958          25.0000        4               
  1.030e-10          1.7958          25.0000        4               
  1.040e-10          1.7958          25.0000        4               
  1.050e-10          1.7958          25.0000        4               
  1.060e-10          1.7958          25.0000        4               
  1.070e-10          1.7958          25.0000        4               
  1.080e-10          1.7958          25.0000        4               
  1.090e-10          1.7958          25.0000        4               
  1.100e-10          1.7958          25.0000        4               
  1.110e-10          1.7958          25.0000        4               
  1.120e-10          1.7958          25.0000        4               
  1.130e-10          1.7958          25.0000        4               
  1.140e-10          1.7958          25.0000        4               
  1.150e-10          1.7958          25.0000        4               
  1.160e-10          1.7958          25.0000        4               
  1.170e-10          1.7958          25.0000        4               
  1.180e-10          1.7958          25.0000        4               
  1.190e-10          1.7958          25.0000        4               
  1.200e-10          1.7958          25.0000        4               
  1.210e-10          1.7958          25.0000        4               
  1.220e-10          1.7958          25.0000        4               
  1.230e-10          1.7958          25.0000        4               
  1.240e-10          1.7958          25.0000        4               
  1.250e-10          1.7958          25.0000        4               
  1.260e-10          1.7958          25.0000        4               
  1.270e-10          1.7958          25.0000        4               
  1.280e-10          1.7958          25.0000        4               
  1.290e-10          1.7958          25.0000        4               
  1.300e-10          1.7958          25.0000        4               
  1.310e-10          1.7958          25.0000        4               
  1.320e-10          1.7958          25.0000        4               
  1.330e-10          1.7958          25.0000        4               
  1.340e-10          1.7958          25.0000        4               
  1.350e-10          1.7958          25.0000        4               
  1.360e-10          1.7958          25.0000        4               
  1.370e-10          1.7958          25.0000        4               
  1.380e-10          1.7958          25.0000        4               
  1.390e-10          1.7958          25.0000        4               
  1.400e-10          1.7958          25.0000        4               
  1.410e-10          1.7958          25.0000        4               
  1.420e-10          1.7958          25.0000        4               
  1.430e-10          1.7958          25.0000        4               
  1.440e-10          1.7958          25.0000        4               
  1.450e-10          1.7958          25.0000        4               
  1.460e-10          1.7958          25.0000        4               
  1.470e-10          1.7958          25.0000        4               
  1.480e-10          1.7958          25.0000        4               
  1.490e-10          1.7958          25.0000        4               
  1.500e-10          1.7958          25.0000        4               
  1.510e-10          1.7958          25.0000        4               
  1.520e-10          1.7958          25.0000        4               
  1.530e-10          1.7958          25.0000        4               
  1.540e-10          1.7958          25.0000        4               
  1.550e-10          1.7958          25.0000        4               
  1.560e-10          1.7958          25.0000        4               
  1.570e-10          1.7958          25.0000        4               
  1.580e-10          1.7958          25.0000        4               
  1.590e-10          1.7958          25.0000        4               
  1.600e-10          1.7958          25.0000        4               
  1.610e-10          1.7958          25.0000        4               
  1.620e-10          1.7958          25.0000        4               
  1.630e-10          1.7958          25.0000        4               
  1.640e-10          1.7958          25.0000        4               
  1.650e-10          1.7958          25.0000        4               
  1.660e-10          1.7958          25.0000        4               
  1.670e-10          1.7958          25.0000        4               
  1.680e-10          1.7958          25.0000        4               
  1.690e-10          1.7958          25.0000        4               
  1.700e-10          1.7958          25.0000        4               
  1.710e-10          1.7958          25.0000        4               
  1.720e-10          1.7958          25.0000        4               
  1.730e-10          1.7958          25.0000        4               
  1.740e-10          1.7958          25.0000        4               
  1.750e-10          1.7958          25.0000        4               
  1.760e-10          1.7958          25.0000        4               
  1.770e-10          1.7958          25.0000        4               
  1.780e-10          1.7958          25.0000        4               
  1.790e-10          1.7958          25.0000        4               
  1.800e-10          1.7958          25.0000        4               
  1.810e-10          1.7958          25.0000        4               
  1.820e-10          1.7958          25.0000        4               
  1.830e-10          1.7958          25.0000        4               
  1.840e-10          1.7958          25.0000        4               
  1.850e-10          1.7958          25.0000        4               
  1.860e-10          1.7958          25.0000        4               
  1.870e-10          1.7958          25.0000        4               
  1.880e-10          1.7958          25.0000        4               
  1.890e-10          1.7958          25.0000        4               
  1.900e-10          1.7957          25.0000        4               
  1.910e-10          1.7957          25.0000        4               
  1.920e-10          1.7957          25.0000        4               
  1.930e-10          1.7956          25.0000        4               
  1.940e-10          1.7956          25.0000        4               
  1.950e-10          1.7955          25.0000        4               
  1.960e-10          1.7955          25.0000        4               
  1.970e-10          1.7954          25.0000        4               
  1.980e-10          1.7954          25.0000        4               
  1.990e-10          1.7954          25.0000        4               
  2.000e-10          1.7953          25.0000        4               
