$DATA1 SOURCE='HSPICE' VERSION='P-2019.06-SP1-1 win64' PARAM_COUNT=0
.TITLE 'tdq_tcq_measure'
 t_cq             t_dq             temper           alter#          
  7.625e-11        1.429e-10         25.0000        2               
