 ****** HSPICE -- P-2019.06-SP1-1 win64 (Sep 27 2019) ******                    
  Copyright (c) 1986 - 2026 by Synopsys, Inc. All Rights Reserved.              
  This software and the associated documentation are proprietary
  to Synopsys, Inc. This software may only be used in accordance
  with the terms and conditions of a written license agreement with
  Synopsys, Inc. All other use, reproduction, or distribution of
  this software is strictly prohibited.
  Input File: sim.sp                                                            
  Command line options: C:\synopsys\Hspice_P-2019.06-SP1-1\WIN64\hspice.com -i sim.sp -o D:\UT.CE\Term-06\AVLSI\CA\CA04\simulation\seq-elements\D-Latch\delay\sim.lis
  Start time: Fri Jul 10 03:58:32 2026
  lic:  
  lic: FLEXlm: SDK_12.3 
  lic: USER:   Mohammad-Khohsroo    HOSTNAME: DESKTOP-GMQQFUO 
  lic: HOSTID: "088fc3e7a24d"       PID:      3588 
  lic: Using FLEXlm license file: 
  lic: 27000@DESKTOP-GMQQFUO 
  lic: Checkout 1 hspice 
  lic: License/Maintenance for hspice will expire on 30-dec-2030/2020.12 
  lic: 1(in_use)/99(total) FLOATING license(s) on SERVER 27000@DESKTOP-GMQQFUO 
  lic:   
1****** HSPICE -- P-2019.06-SP1-1 win64 (Sep 27 2019) ******                    
 ******  
 ********************* hspice fa gates modeling **********************

 ****** circuit name directory
 circuit number to circuit name directory
   number circuitname                     definition         multiplier
        0 main circuit
        1 xcircuit.                       d_latch_nn         1.00 
        2 xcircuit.xinv_d.                inv                1.00 
        3 xcircuit.xnand1.                nand2              1.00 
        4 xcircuit.xnand2.                nand2              1.00 
        5 xcircuit.xnand3.                nand2              1.00 
        6 xcircuit.xnand4.                nand2              1.00 
 

  
             
 Warning:'No DC path nodes' occurs 2 times
 No DC path from the following nodes,connected with gdcpath:
 -----------------------
 |Node      |Subckt    |
 |----------+----------|
 |d         |0         |
 |e         |0         |
 -----------------------
              
      
 **info** set option symb=1 internally to help for convergence.
 *****************************************************************
 ******  option summary
 ******
 runlvl  = 3         bypass  = 2.0000    

          ***** job concluded
 ******  
 ********************* hspice fa gates modeling **********************

 ****** job statistics summary tnom=  25.000 temp=  25.000 ******

  ******  HSPICE Threads Information  ******

  Command Line Threads Count :     1
  Available CPU Count        :    16
  Actual Threads Count       :     1


  ******  Circuit Statistics  ******
  # nodes       =      50 # elements   =      20
  # resistors   =       0 # capacitors =       0 # inductors   =       0
  # mutual_inds =       0 # vccs       =       0 # vcvs        =       0
  # cccs        =       0 # ccvs       =       0 # volt_srcs   =       2
  # curr_srcs   =       0 # diodes     =       0 # bjts        =       0
  # jfets       =       0 # mosfets    =      18 # U elements  =       0
  # T elements  =       0 # W elements =       0 # B elements  =       0
  # S elements  =       0 # P elements =       0 # va device   =       0
  # vector_srcs =       0 # N elements =       0


  ******  Runtime Statistics (seconds)  ******

  analysis           time    # points   tot. iter  conv.iter
  op point           0.00           1           0
  readin             0.05
  errchk             0.00
  setup              0.00
  output             0.00


           peak memory used         65.90 megabytes
           total cpu time            0.05 seconds
           total elapsed time        0.07 seconds
           job started at     03:58:32 07/10/2026
           job ended   at     03:58:32 07/10/2026
 ******  
 tdq_tcq_measure

 ****** circuit name directory
 circuit number to circuit name directory
   number circuitname                     definition         multiplier
        0 main circuit
        1 xcircuit.                       d_latch_nn         1.00 
        2 xcircuit.xinv_d.                inv                1.00 
        3 xcircuit.xnand1.                nand2              1.00 
        4 xcircuit.xnand2.                nand2              1.00 
        5 xcircuit.xnand3.                nand2              1.00 
        6 xcircuit.xnand4.                nand2              1.00 
  **info** (sim.sp:41) DC voltage reset to initial transient source value in source 0:vd. new dc=0.0000D+00
  
      
 **info** set option symb=1 internally to help for convergence.
 *****************************************************************
 ******  option summary
 ******
 runlvl  = 6         bypass  = 2.0000    
  Opening plot unit= 79
 file=D:\UT.CE\Term-06\AVLSI\CA\CA04\simulation\seq-elements\D-Latch\delay\sim.pa0

 ******
 tdq_tcq_measure

 ****** transient analysis tnom=  25.000 temp=  25.000 ******
 t_cq=  76.2477p  targ=   1.0862n   trig=   1.0100n
 t_dq= 142.8504p  targ=   1.3529n   trig=   1.2100n

          ***** job concluded
 ******  
 tdq_tcq_measure

 ****** job statistics summary tnom=  25.000 temp=  25.000 ******

  ******  Circuit Statistics  ******
  # nodes       =      50 # elements   =      22
  # resistors   =       0 # capacitors =       0 # inductors   =       0
  # mutual_inds =       0 # vccs       =       0 # vcvs        =       0
  # cccs        =       0 # ccvs       =       0 # volt_srcs   =       4
  # curr_srcs   =       0 # diodes     =       0 # bjts        =       0
  # jfets       =       0 # mosfets    =      18 # U elements  =       0
  # T elements  =       0 # W elements =       0 # B elements  =       0
  # S elements  =       0 # P elements =       0 # va device   =       0
  # vector_srcs =       0 # N elements =       0


  ******  Runtime Statistics (seconds)  ******

  analysis           time    # points   tot. iter  conv.iter
  op point           0.00           1           0
  transient          0.02        4001        1115         360 rev=        46
  readin             0.01
  errchk             0.00
  setup              0.00
  output             0.00


           peak memory used         66.36 megabytes
           total cpu time            0.03 seconds
           total elapsed time        0.04 seconds
           job started at     03:58:32 07/10/2026
           job ended   at     03:58:32 07/10/2026
 ******  
 setup_sweep

 ****** circuit name directory
 circuit number to circuit name directory
   number circuitname                     definition         multiplier
        0 main circuit
        1 xcircuit.                       d_latch_nn         1.00 
        2 xcircuit.xinv_d.                inv                1.00 
        3 xcircuit.xnand1.                nand2              1.00 
        4 xcircuit.xnand2.                nand2              1.00 
        5 xcircuit.xnand3.                nand2              1.00 
        6 xcircuit.xnand4.                nand2              1.00 
  **info** (sim.sp:59) DC voltage reset to initial transient source value in source 0:vd. new dc=0.0000D+00
  **warning** (sim.sp:56) Duplicate .ic/.nodeset declaration for node q. Taking the .ic value 0.00
  
      
 **info** set option symb=1 internally to help for convergence.
 *****************************************************************
 ******  option summary
 ******
 runlvl  = 6         bypass  = 2.0000    
  Opening plot unit= 79
 file=D:\UT.CE\Term-06\AVLSI\CA\CA04\simulation\seq-elements\D-Latch\delay\sim.pa1

 ******
 setup_sweep

 ****** transient analysis tnom=  25.000 temp=  25.000 ******
 t_cq= 770.7751p  targ=   1.7808n   trig=   1.0100n
  **warning** (sim.sp:45) .MEASURE t_dq never reached the target value, Measurement failed! 
   t_dq= failed       targ= not found    trig=    3.5100n
 ******
 setup_sweep

 ****** transient analysis tnom=  25.000 temp=  25.000 ******
  *** parameter t_setup =   300.0000p       ***
  
 q_max=   1.8241     at=   2.0372n
             from=   1.8000n    to=   3.5000n

          ***** job concluded
 ******
 setup_sweep

 ****** transient analysis tnom=  25.000 temp=  25.000 ******
  *** parameter t_setup =   299.0000p       ***
  
 q_max=   1.8242     at=   2.0391n
             from=   1.8000n    to=   3.5000n

          ***** job concluded
 ******
 setup_sweep

 ****** transient analysis tnom=  25.000 temp=  25.000 ******
  *** parameter t_setup =   298.0000p       ***
  
 q_max=   1.8241     at=   2.0371n
             from=   1.8000n    to=   3.5000n

          ***** job concluded
 ******
 setup_sweep

 ****** transient analysis tnom=  25.000 temp=  25.000 ******
  *** parameter t_setup =   297.0000p       ***
  
 q_max=   1.8237     at=   2.0359n
             from=   1.8000n    to=   3.5000n

          ***** job concluded
 ******
 setup_sweep

 ****** transient analysis tnom=  25.000 temp=  25.000 ******
  *** parameter t_setup =   296.0000p       ***
  
 q_max=   1.8238     at=   2.0359n
             from=   1.8000n    to=   3.5000n

          ***** job concluded
 ******
 setup_sweep

 ****** transient analysis tnom=  25.000 temp=  25.000 ******
  *** parameter t_setup =   295.0000p       ***
  
 q_max=   1.8242     at=   2.0388n
             from=   1.8000n    to=   3.5000n

          ***** job concluded
 ******
 setup_sweep

 ****** transient analysis tnom=  25.000 temp=  25.000 ******
  *** parameter t_setup =   294.0000p       ***
  
 q_max=   1.8241     at=   2.0371n
             from=   1.8000n    to=   3.5000n

          ***** job concluded
 ******
 setup_sweep

 ****** transient analysis tnom=  25.000 temp=  25.000 ******
  *** parameter t_setup =   293.0000p       ***
  
 q_max=   1.8241     at=   2.0375n
             from=   1.8000n    to=   3.5000n

          ***** job concluded
 ******
 setup_sweep

 ****** transient analysis tnom=  25.000 temp=  25.000 ******
  *** parameter t_setup =   292.0000p       ***
  
 q_max=   1.8237     at=   2.0359n
             from=   1.8000n    to=   3.5000n

          ***** job concluded
 ******
 setup_sweep

 ****** transient analysis tnom=  25.000 temp=  25.000 ******
  *** parameter t_setup =   291.0000p       ***
  
 q_max=   1.8239     at=   2.0366n
             from=   1.8000n    to=   3.5000n

          ***** job concluded
 ******
 setup_sweep

 ****** transient analysis tnom=  25.000 temp=  25.000 ******
  *** parameter t_setup =   290.0000p       ***
  
 q_max=   1.8241     at=   2.0375n
             from=   1.8000n    to=   3.5000n

          ***** job concluded
 ******
 setup_sweep

 ****** transient analysis tnom=  25.000 temp=  25.000 ******
  *** parameter t_setup =   289.0000p       ***
  
 q_max=   1.8237     at=   2.0359n
             from=   1.8000n    to=   3.5000n

          ***** job concluded
 ******
 setup_sweep

 ****** transient analysis tnom=  25.000 temp=  25.000 ******
  *** parameter t_setup =   288.0000p       ***
  
 q_max=   1.8238     at=   2.0362n
             from=   1.8000n    to=   3.5000n

          ***** job concluded
 ******
 setup_sweep

 ****** transient analysis tnom=  25.000 temp=  25.000 ******
  *** parameter t_setup =   287.0000p       ***
  
 q_max=   1.8237     at=   2.0359n
             from=   1.8000n    to=   3.5000n

          ***** job concluded
 ******
 setup_sweep

 ****** transient analysis tnom=  25.000 temp=  25.000 ******
  *** parameter t_setup =   286.0000p       ***
  
 q_max=   1.8240     at=   2.0371n
             from=   1.8000n    to=   3.5000n

          ***** job concluded
 ******
 setup_sweep

 ****** transient analysis tnom=  25.000 temp=  25.000 ******
  *** parameter t_setup =   285.0000p       ***
  
 q_max=   1.8236     at=   2.0356n
             from=   1.8000n    to=   3.5000n

          ***** job concluded
 ******
 setup_sweep

 ****** transient analysis tnom=  25.000 temp=  25.000 ******
  *** parameter t_setup =   284.0000p       ***
  
 q_max=   1.8237     at=   2.0359n
             from=   1.8000n    to=   3.5000n

          ***** job concluded
 ******
 setup_sweep

 ****** transient analysis tnom=  25.000 temp=  25.000 ******
  *** parameter t_setup =   283.0000p       ***
  
 q_max=   1.8242     at=   2.0386n
             from=   1.8000n    to=   3.5000n

          ***** job concluded
 ******
 setup_sweep

 ****** transient analysis tnom=  25.000 temp=  25.000 ******
  *** parameter t_setup =   282.0000p       ***
  
 q_max=   1.8238     at=   2.0360n
             from=   1.8000n    to=   3.5000n

          ***** job concluded
 ******
 setup_sweep

 ****** transient analysis tnom=  25.000 temp=  25.000 ******
  *** parameter t_setup =   281.0000p       ***
  
 q_max=   1.8241     at=   2.0397n
             from=   1.8000n    to=   3.5000n

          ***** job concluded
 ******
 setup_sweep

 ****** transient analysis tnom=  25.000 temp=  25.000 ******
  *** parameter t_setup =   280.0000p       ***
  
 q_max=   1.8237     at=   2.0359n
             from=   1.8000n    to=   3.5000n

          ***** job concluded
 ******
 setup_sweep

 ****** transient analysis tnom=  25.000 temp=  25.000 ******
  *** parameter t_setup =   279.0000p       ***
  
 q_max=   1.8237     at=   2.0359n
             from=   1.8000n    to=   3.5000n

          ***** job concluded
 ******
 setup_sweep

 ****** transient analysis tnom=  25.000 temp=  25.000 ******
  *** parameter t_setup =   278.0000p       ***
  
 q_max=   1.8237     at=   2.0359n
             from=   1.8000n    to=   3.5000n

          ***** job concluded
 ******
 setup_sweep

 ****** transient analysis tnom=  25.000 temp=  25.000 ******
  *** parameter t_setup =   277.0000p       ***
  
 q_max=   1.8237     at=   2.0359n
             from=   1.8000n    to=   3.5000n

          ***** job concluded
 ******
 setup_sweep

 ****** transient analysis tnom=  25.000 temp=  25.000 ******
  *** parameter t_setup =   276.0000p       ***
  
 q_max=   1.8242     at=   2.0378n
             from=   1.8000n    to=   3.5000n

          ***** job concluded
 ******
 setup_sweep

 ****** transient analysis tnom=  25.000 temp=  25.000 ******
  *** parameter t_setup =   275.0000p       ***
  
 q_max=   1.8240     at=   2.0367n
             from=   1.8000n    to=   3.5000n

          ***** job concluded
 ******
 setup_sweep

 ****** transient analysis tnom=  25.000 temp=  25.000 ******
  *** parameter t_setup =   274.0000p       ***
  
 q_max=   1.8236     at=   2.0355n
             from=   1.8000n    to=   3.5000n

          ***** job concluded
 ******
 setup_sweep

 ****** transient analysis tnom=  25.000 temp=  25.000 ******
  *** parameter t_setup =   273.0000p       ***
  
 q_max=   1.8239     at=   2.0409n
             from=   1.8000n    to=   3.5000n

          ***** job concluded
 ******
 setup_sweep

 ****** transient analysis tnom=  25.000 temp=  25.000 ******
  *** parameter t_setup =   272.0000p       ***
  
 q_max=   1.8239     at=   2.0363n
             from=   1.8000n    to=   3.5000n

          ***** job concluded
 ******
 setup_sweep

 ****** transient analysis tnom=  25.000 temp=  25.000 ******
  *** parameter t_setup =   271.0000p       ***
  
 q_max=   1.8237     at=   2.0359n
             from=   1.8000n    to=   3.5000n

          ***** job concluded
 ******
 setup_sweep

 ****** transient analysis tnom=  25.000 temp=  25.000 ******
  *** parameter t_setup =   270.0000p       ***
  
 q_max=   1.8237     at=   2.0359n
             from=   1.8000n    to=   3.5000n

          ***** job concluded
 ******
 setup_sweep

 ****** transient analysis tnom=  25.000 temp=  25.000 ******
  *** parameter t_setup =   269.0000p       ***
  
 q_max=   1.8237     at=   2.0360n
             from=   1.8000n    to=   3.5000n

          ***** job concluded
 ******
 setup_sweep

 ****** transient analysis tnom=  25.000 temp=  25.000 ******
  *** parameter t_setup =   268.0000p       ***
  
 q_max=   1.8237     at=   2.0359n
             from=   1.8000n    to=   3.5000n

          ***** job concluded
 ******
 setup_sweep

 ****** transient analysis tnom=  25.000 temp=  25.000 ******
  *** parameter t_setup =   267.0000p       ***
  
 q_max=   1.8240     at=   2.0405n
             from=   1.8000n    to=   3.5000n

          ***** job concluded
 ******
 setup_sweep

 ****** transient analysis tnom=  25.000 temp=  25.000 ******
  *** parameter t_setup =   266.0000p       ***
  
 q_max=   1.8237     at=   2.0359n
             from=   1.8000n    to=   3.5000n

          ***** job concluded
 ******
 setup_sweep

 ****** transient analysis tnom=  25.000 temp=  25.000 ******
  *** parameter t_setup =   265.0000p       ***
  
 q_max=   1.8237     at=   2.0359n
             from=   1.8000n    to=   3.5000n

          ***** job concluded
 ******
 setup_sweep

 ****** transient analysis tnom=  25.000 temp=  25.000 ******
  *** parameter t_setup =   264.0000p       ***
  
 q_max=   1.8238     at=   2.0360n
             from=   1.8000n    to=   3.5000n

          ***** job concluded
 ******
 setup_sweep

 ****** transient analysis tnom=  25.000 temp=  25.000 ******
  *** parameter t_setup =   263.0000p       ***
  
 q_max=   1.8238     at=   2.0360n
             from=   1.8000n    to=   3.5000n

          ***** job concluded
 ******
 setup_sweep

 ****** transient analysis tnom=  25.000 temp=  25.000 ******
  *** parameter t_setup =   262.0000p       ***
  
 q_max=   1.8238     at=   2.0362n
             from=   1.8000n    to=   3.5000n

          ***** job concluded
 ******
 setup_sweep

 ****** transient analysis tnom=  25.000 temp=  25.000 ******
  *** parameter t_setup =   261.0000p       ***
  
 q_max=   1.8237     at=   2.0359n
             from=   1.8000n    to=   3.5000n

          ***** job concluded
 ******
 setup_sweep

 ****** transient analysis tnom=  25.000 temp=  25.000 ******
  *** parameter t_setup =   260.0000p       ***
  
 q_max=   1.8237     at=   2.0359n
             from=   1.8000n    to=   3.5000n

          ***** job concluded
 ******
 setup_sweep

 ****** transient analysis tnom=  25.000 temp=  25.000 ******
  *** parameter t_setup =   259.0000p       ***
  
 q_max=   1.8241     at=   2.0399n
             from=   1.8000n    to=   3.5000n

          ***** job concluded
 ******
 setup_sweep

 ****** transient analysis tnom=  25.000 temp=  25.000 ******
  *** parameter t_setup =   258.0000p       ***
  
 q_max=   1.8237     at=   2.0360n
             from=   1.8000n    to=   3.5000n

          ***** job concluded
 ******
 setup_sweep

 ****** transient analysis tnom=  25.000 temp=  25.000 ******
  *** parameter t_setup =   257.0000p       ***
  
 q_max=   1.8237     at=   2.0359n
             from=   1.8000n    to=   3.5000n

          ***** job concluded
 ******
 setup_sweep

 ****** transient analysis tnom=  25.000 temp=  25.000 ******
  *** parameter t_setup =   256.0000p       ***
  
 q_max=   1.8237     at=   2.0359n
             from=   1.8000n    to=   3.5000n

          ***** job concluded
 ******
 setup_sweep

 ****** transient analysis tnom=  25.000 temp=  25.000 ******
  *** parameter t_setup =   255.0000p       ***
  
 q_max=   1.8237     at=   2.0359n
             from=   1.8000n    to=   3.5000n

          ***** job concluded
 ******
 setup_sweep

 ****** transient analysis tnom=  25.000 temp=  25.000 ******
  *** parameter t_setup =   254.0000p       ***
  
 q_max=   1.8240     at=   2.0406n
             from=   1.8000n    to=   3.5000n

          ***** job concluded
 ******
 setup_sweep

 ****** transient analysis tnom=  25.000 temp=  25.000 ******
  *** parameter t_setup =   253.0000p       ***
  
 q_max=   1.8241     at=   2.0400n
             from=   1.8000n    to=   3.5000n

          ***** job concluded
 ******
 setup_sweep

 ****** transient analysis tnom=  25.000 temp=  25.000 ******
  *** parameter t_setup =   252.0000p       ***
  
 q_max=   1.8237     at=   2.0358n
             from=   1.8000n    to=   3.5000n

          ***** job concluded
 ******
 setup_sweep

 ****** transient analysis tnom=  25.000 temp=  25.000 ******
  *** parameter t_setup =   251.0000p       ***
  
 q_max=   1.8240     at=   2.0370n
             from=   1.8000n    to=   3.5000n

          ***** job concluded
 ******
 setup_sweep

 ****** transient analysis tnom=  25.000 temp=  25.000 ******
  *** parameter t_setup =   250.0000p       ***
  
 q_max=   1.8237     at=   2.0360n
             from=   1.8000n    to=   3.5000n

          ***** job concluded
 ******
 setup_sweep

 ****** transient analysis tnom=  25.000 temp=  25.000 ******
  *** parameter t_setup =   249.0000p       ***
  
 q_max=   1.8237     at=   2.0359n
             from=   1.8000n    to=   3.5000n

          ***** job concluded
 ******
 setup_sweep

 ****** transient analysis tnom=  25.000 temp=  25.000 ******
  *** parameter t_setup =   248.0000p       ***
  
 q_max=   1.8240     at=   2.0368n
             from=   1.8000n    to=   3.5000n

          ***** job concluded
 ******
 setup_sweep

 ****** transient analysis tnom=  25.000 temp=  25.000 ******
  *** parameter t_setup =   247.0000p       ***
  
 q_max=   1.8240     at=   2.0403n
             from=   1.8000n    to=   3.5000n

          ***** job concluded
 ******
 setup_sweep

 ****** transient analysis tnom=  25.000 temp=  25.000 ******
  *** parameter t_setup =   246.0000p       ***
  
 q_max=   1.8236     at=   2.0357n
             from=   1.8000n    to=   3.5000n

          ***** job concluded
 ******
 setup_sweep

 ****** transient analysis tnom=  25.000 temp=  25.000 ******
  *** parameter t_setup =   245.0000p       ***
  
 q_max=   1.8240     at=   2.0369n
             from=   1.8000n    to=   3.5000n

          ***** job concluded
 ******
 setup_sweep

 ****** transient analysis tnom=  25.000 temp=  25.000 ******
  *** parameter t_setup =   244.0000p       ***
  
 q_max=   1.8237     at=   2.0359n
             from=   1.8000n    to=   3.5000n

          ***** job concluded
 ******
 setup_sweep

 ****** transient analysis tnom=  25.000 temp=  25.000 ******
  *** parameter t_setup =   243.0000p       ***
  
 q_max=   1.8237     at=   2.0359n
             from=   1.8000n    to=   3.5000n

          ***** job concluded
 ******
 setup_sweep

 ****** transient analysis tnom=  25.000 temp=  25.000 ******
  *** parameter t_setup =   242.0000p       ***
  
 q_max=   1.8239     at=   2.0408n
             from=   1.8000n    to=   3.5000n

          ***** job concluded
 ******
 setup_sweep

 ****** transient analysis tnom=  25.000 temp=  25.000 ******
  *** parameter t_setup =   241.0000p       ***
  
 q_max=   1.8237     at=   2.0359n
             from=   1.8000n    to=   3.5000n

          ***** job concluded
 ******
 setup_sweep

 ****** transient analysis tnom=  25.000 temp=  25.000 ******
  *** parameter t_setup =   240.0000p       ***
  
 q_max=   1.8237     at=   2.0359n
             from=   1.8000n    to=   3.5000n

          ***** job concluded
 ******
 setup_sweep

 ****** transient analysis tnom=  25.000 temp=  25.000 ******
  *** parameter t_setup =   239.0000p       ***
  
 q_max=   1.8242     at=   2.0387n
             from=   1.8000n    to=   3.5000n

          ***** job concluded
 ******
 setup_sweep

 ****** transient analysis tnom=  25.000 temp=  25.000 ******
  *** parameter t_setup =   238.0000p       ***
  
 q_max=   1.8239     at=   2.0406n
             from=   1.8000n    to=   3.5000n

          ***** job concluded
 ******
 setup_sweep

 ****** transient analysis tnom=  25.000 temp=  25.000 ******
  *** parameter t_setup =   237.0000p       ***
  
 q_max=   1.8237     at=   2.0360n
             from=   1.8000n    to=   3.5000n

          ***** job concluded
 ******
 setup_sweep

 ****** transient analysis tnom=  25.000 temp=  25.000 ******
  *** parameter t_setup =   236.0000p       ***
  
 q_max=   1.8237     at=   2.0360n
             from=   1.8000n    to=   3.5000n

          ***** job concluded
 ******
 setup_sweep

 ****** transient analysis tnom=  25.000 temp=  25.000 ******
  *** parameter t_setup =   235.0000p       ***
  
 q_max=   1.8237     at=   2.0359n
             from=   1.8000n    to=   3.5000n

          ***** job concluded
 ******
 setup_sweep

 ****** transient analysis tnom=  25.000 temp=  25.000 ******
  *** parameter t_setup =   234.0000p       ***
  
 q_max=   1.8239     at=   2.0406n
             from=   1.8000n    to=   3.5000n

          ***** job concluded
 ******
 setup_sweep

 ****** transient analysis tnom=  25.000 temp=  25.000 ******
  *** parameter t_setup =   233.0000p       ***
  
 q_max=   1.8237     at=   2.0360n
             from=   1.8000n    to=   3.5000n

          ***** job concluded
 ******
 setup_sweep

 ****** transient analysis tnom=  25.000 temp=  25.000 ******
  *** parameter t_setup =   232.0000p       ***
  
 q_max=   1.8237     at=   2.0360n
             from=   1.8000n    to=   3.5000n

          ***** job concluded
 ******
 setup_sweep

 ****** transient analysis tnom=  25.000 temp=  25.000 ******
  *** parameter t_setup =   231.0000p       ***
  
 q_max=   1.8237     at=   2.0359n
             from=   1.8000n    to=   3.5000n

          ***** job concluded
 ******
 setup_sweep

 ****** transient analysis tnom=  25.000 temp=  25.000 ******
  *** parameter t_setup =   230.0000p       ***
  
 q_max=   1.8237     at=   2.0360n
             from=   1.8000n    to=   3.5000n

          ***** job concluded
 ******
 setup_sweep

 ****** transient analysis tnom=  25.000 temp=  25.000 ******
  *** parameter t_setup =   229.0000p       ***
  
 q_max=   1.8238     at=   2.0410n
             from=   1.8000n    to=   3.5000n

          ***** job concluded
 ******
 setup_sweep

 ****** transient analysis tnom=  25.000 temp=  25.000 ******
  *** parameter t_setup =   228.0000p       ***
  
 q_max=   1.8235     at=   2.0418n
             from=   1.8000n    to=   3.5000n

          ***** job concluded
 ******
 setup_sweep

 ****** transient analysis tnom=  25.000 temp=  25.000 ******
  *** parameter t_setup =   227.0000p       ***
  
 q_max=   1.8237     at=   2.0360n
             from=   1.8000n    to=   3.5000n

          ***** job concluded
 ******
 setup_sweep

 ****** transient analysis tnom=  25.000 temp=  25.000 ******
  *** parameter t_setup =   226.0000p       ***
  
 q_max=   1.8238     at=   2.0408n
             from=   1.8000n    to=   3.5000n

          ***** job concluded
 ******
 setup_sweep

 ****** transient analysis tnom=  25.000 temp=  25.000 ******
  *** parameter t_setup =   225.0000p       ***
  
 q_max=   1.8235     at=   2.0355n
             from=   1.8000n    to=   3.5000n

          ***** job concluded
 ******
 setup_sweep

 ****** transient analysis tnom=  25.000 temp=  25.000 ******
  *** parameter t_setup =   224.0000p       ***
  
 q_max=   1.8238     at=   2.0364n
             from=   1.8000n    to=   3.5000n

          ***** job concluded
 ******
 setup_sweep

 ****** transient analysis tnom=  25.000 temp=  25.000 ******
  *** parameter t_setup =   223.0000p       ***
  
 q_max=   1.8239     at=   2.0403n
             from=   1.8000n    to=   3.5000n

          ***** job concluded
 ******
 setup_sweep

 ****** transient analysis tnom=  25.000 temp=  25.000 ******
  *** parameter t_setup =   222.0000p       ***
  
 q_max=   1.8241     at=   2.0389n
             from=   1.8000n    to=   3.5000n

          ***** job concluded
 ******
 setup_sweep

 ****** transient analysis tnom=  25.000 temp=  25.000 ******
  *** parameter t_setup =   221.0000p       ***
  
 q_max=   1.8236     at=   2.0414n
             from=   1.8000n    to=   3.5000n

          ***** job concluded
 ******
 setup_sweep

 ****** transient analysis tnom=  25.000 temp=  25.000 ******
  *** parameter t_setup =   220.0000p       ***
  
 q_max=   1.8236     at=   2.0414n
             from=   1.8000n    to=   3.5000n

          ***** job concluded
 ******
 setup_sweep

 ****** transient analysis tnom=  25.000 temp=  25.000 ******
  *** parameter t_setup =   219.0000p       ***
  
 q_max=   1.8235     at=   2.0416n
             from=   1.8000n    to=   3.5000n

          ***** job concluded
 ******
 setup_sweep

 ****** transient analysis tnom=  25.000 temp=  25.000 ******
  *** parameter t_setup =   218.0000p       ***
  
 q_max=   1.8240     at=   2.0400n
             from=   1.8000n    to=   3.5000n

          ***** job concluded
 ******
 setup_sweep

 ****** transient analysis tnom=  25.000 temp=  25.000 ******
  *** parameter t_setup =   217.0000p       ***
  
 q_max=   1.8241     at=   2.0393n
             from=   1.8000n    to=   3.5000n

          ***** job concluded
 ******
 setup_sweep

 ****** transient analysis tnom=  25.000 temp=  25.000 ******
  *** parameter t_setup =   216.0000p       ***
  
 q_max=   1.8241     at=   2.0389n
             from=   1.8000n    to=   3.5000n

          ***** job concluded
 ******
 setup_sweep

 ****** transient analysis tnom=  25.000 temp=  25.000 ******
  *** parameter t_setup =   215.0000p       ***
  
 q_max=   1.8236     at=   2.0413n
             from=   1.8000n    to=   3.5000n

          ***** job concluded
 ******
 setup_sweep

 ****** transient analysis tnom=  25.000 temp=  25.000 ******
  *** parameter t_setup =   214.0000p       ***
  
 q_max=   1.8238     at=   2.0405n
             from=   1.8000n    to=   3.5000n

          ***** job concluded
 ******
 setup_sweep

 ****** transient analysis tnom=  25.000 temp=  25.000 ******
  *** parameter t_setup =   213.0000p       ***
  
 q_max=   1.8237     at=   2.0408n
             from=   1.8000n    to=   3.5000n

          ***** job concluded
 ******
 setup_sweep

 ****** transient analysis tnom=  25.000 temp=  25.000 ******
  *** parameter t_setup =   212.0000p       ***
  
 q_max=   1.8234     at=   2.0419n
             from=   1.8000n    to=   3.5000n

          ***** job concluded
 ******
 setup_sweep

 ****** transient analysis tnom=  25.000 temp=  25.000 ******
  *** parameter t_setup =   211.0000p       ***
  
 q_max=   1.8235     at=   2.0359n
             from=   1.8000n    to=   3.5000n

          ***** job concluded
 ******
 setup_sweep

 ****** transient analysis tnom=  25.000 temp=  25.000 ******
  *** parameter t_setup =   210.0000p       ***
  
 q_max=   1.8235     at=   2.0359n
             from=   1.8000n    to=   3.5000n

          ***** job concluded
 ******
 setup_sweep

 ****** transient analysis tnom=  25.000 temp=  25.000 ******
  *** parameter t_setup =   209.0000p       ***
  
 q_max=   1.8235     at=   2.0359n
             from=   1.8000n    to=   3.5000n

          ***** job concluded
 ******
 setup_sweep

 ****** transient analysis tnom=  25.000 temp=  25.000 ******
  *** parameter t_setup =   208.0000p       ***
  
 q_max=   1.8234     at=   2.0416n
             from=   1.8000n    to=   3.5000n

          ***** job concluded
 ******
 setup_sweep

 ****** transient analysis tnom=  25.000 temp=  25.000 ******
  *** parameter t_setup =   207.0000p       ***
  
 q_max=   1.8235     at=   2.0413n
             from=   1.8000n    to=   3.5000n

          ***** job concluded
 ******
 setup_sweep

 ****** transient analysis tnom=  25.000 temp=  25.000 ******
  *** parameter t_setup =   206.0000p       ***
  
 q_max=   1.8236     at=   2.0411n
             from=   1.8000n    to=   3.5000n

          ***** job concluded
 ******
 setup_sweep

 ****** transient analysis tnom=  25.000 temp=  25.000 ******
  *** parameter t_setup =   205.0000p       ***
  
 q_max=   1.8235     at=   2.0411n
             from=   1.8000n    to=   3.5000n

          ***** job concluded
 ******
 setup_sweep

 ****** transient analysis tnom=  25.000 temp=  25.000 ******
  *** parameter t_setup =   204.0000p       ***
  
 q_max=   1.8234     at=   2.0359n
             from=   1.8000n    to=   3.5000n

          ***** job concluded
 ******
 setup_sweep

 ****** transient analysis tnom=  25.000 temp=  25.000 ******
  *** parameter t_setup =   203.0000p       ***
  
 q_max=   1.8233     at=   2.0359n
             from=   1.8000n    to=   3.5000n

          ***** job concluded
 ******
 setup_sweep

 ****** transient analysis tnom=  25.000 temp=  25.000 ******
  *** parameter t_setup =   202.0000p       ***
  
 q_max=   1.8235     at=   2.0408n
             from=   1.8000n    to=   3.5000n

          ***** job concluded
 ******
 setup_sweep

 ****** transient analysis tnom=  25.000 temp=  25.000 ******
  *** parameter t_setup =   201.0000p       ***
  
 q_max=   1.8233     at=   2.0359n
             from=   1.8000n    to=   3.5000n

          ***** job concluded
 ******
 setup_sweep

 ****** transient analysis tnom=  25.000 temp=  25.000 ******
  *** parameter t_setup =   200.0000p       ***
  
 q_max=   1.8238     at=   2.0389n
             from=   1.8000n    to=   3.5000n

          ***** job concluded
 ******
 setup_sweep

 ****** transient analysis tnom=  25.000 temp=  25.000 ******
  *** parameter t_setup =   199.0000p       ***
  
 q_max=   1.8232     at=   2.0359n
             from=   1.8000n    to=   3.5000n

          ***** job concluded
 ******
 setup_sweep

 ****** transient analysis tnom=  25.000 temp=  25.000 ******
  *** parameter t_setup =   198.0000p       ***
  
 q_max=   1.8232     at=   2.0359n
             from=   1.8000n    to=   3.5000n

          ***** job concluded
 ******
 setup_sweep

 ****** transient analysis tnom=  25.000 temp=  25.000 ******
  *** parameter t_setup =   197.0000p       ***
  
 q_max=   1.8231     at=   2.0358n
             from=   1.8000n    to=   3.5000n

          ***** job concluded
 ******
 setup_sweep

 ****** transient analysis tnom=  25.000 temp=  25.000 ******
  *** parameter t_setup =   196.0000p       ***
  
 q_max=   1.8231     at=   2.0360n
             from=   1.8000n    to=   3.5000n

          ***** job concluded
 ******
 setup_sweep

 ****** transient analysis tnom=  25.000 temp=  25.000 ******
  *** parameter t_setup =   195.0000p       ***
  
 q_max=   1.8236     at=   2.0381n
             from=   1.8000n    to=   3.5000n

          ***** job concluded
 ******
 setup_sweep

 ****** transient analysis tnom=  25.000 temp=  25.000 ******
  *** parameter t_setup =   194.0000p       ***
  
 q_max=   1.8236     at=   2.0396n
             from=   1.8000n    to=   3.5000n

          ***** job concluded
 ******
 setup_sweep

 ****** transient analysis tnom=  25.000 temp=  25.000 ******
  *** parameter t_setup =   193.0000p       ***
  
 q_max=   1.8230     at=   2.0418n
             from=   1.8000n    to=   3.5000n

          ***** job concluded
 ******
 setup_sweep

 ****** transient analysis tnom=  25.000 temp=  25.000 ******
  *** parameter t_setup =   192.0000p       ***
  
 q_max=   1.8235     at=   2.0393n
             from=   1.8000n    to=   3.5000n

          ***** job concluded
 ******
 setup_sweep

 ****** transient analysis tnom=  25.000 temp=  25.000 ******
  *** parameter t_setup =   191.0000p       ***
  
 q_max=   1.8230     at=   2.0363n
             from=   1.8000n    to=   3.5000n

          ***** job concluded
 ******
 setup_sweep

 ****** transient analysis tnom=  25.000 temp=  25.000 ******
  *** parameter t_setup =   190.0000p       ***
  
 q_max=   1.8234     at=   2.0380n
             from=   1.8000n    to=   3.5000n

          ***** job concluded
 ******
 setup_sweep

 ****** transient analysis tnom=  25.000 temp=  25.000 ******
  *** parameter t_setup =   189.0000p       ***
  
 q_max=   1.8233     at=   2.0377n
             from=   1.8000n    to=   3.5000n

          ***** job concluded
 ******
 setup_sweep

 ****** transient analysis tnom=  25.000 temp=  25.000 ******
  *** parameter t_setup =   188.0000p       ***
  
 q_max=   1.8228     at=   2.0361n
             from=   1.8000n    to=   3.5000n

          ***** job concluded
 ******
 setup_sweep

 ****** transient analysis tnom=  25.000 temp=  25.000 ******
  *** parameter t_setup =   187.0000p       ***
  
 q_max=   1.8227     at=   2.0359n
             from=   1.8000n    to=   3.5000n

          ***** job concluded
 ******
 setup_sweep

 ****** transient analysis tnom=  25.000 temp=  25.000 ******
  *** parameter t_setup =   186.0000p       ***
  
 q_max=   1.8226     at=   2.0359n
             from=   1.8000n    to=   3.5000n

          ***** job concluded
 ******
 setup_sweep

 ****** transient analysis tnom=  25.000 temp=  25.000 ******
  *** parameter t_setup =   185.0000p       ***
  
 q_max=   1.8229     at=   2.0372n
             from=   1.8000n    to=   3.5000n

          ***** job concluded
 ******
 setup_sweep

 ****** transient analysis tnom=  25.000 temp=  25.000 ******
  *** parameter t_setup =   184.0000p       ***
  
 q_max=   1.8231     at=   2.0388n
             from=   1.8000n    to=   3.5000n

          ***** job concluded
 ******
 setup_sweep

 ****** transient analysis tnom=  25.000 temp=  25.000 ******
  *** parameter t_setup =   183.0000p       ***
  
 q_max=   1.8224     at=   2.0361n
             from=   1.8000n    to=   3.5000n

          ***** job concluded
 ******
 setup_sweep

 ****** transient analysis tnom=  25.000 temp=  25.000 ******
  *** parameter t_setup =   182.0000p       ***
  
 q_max=   1.8223     at=   2.0421n
             from=   1.8000n    to=   3.5000n

          ***** job concluded
 ******
 setup_sweep

 ****** transient analysis tnom=  25.000 temp=  25.000 ******
  *** parameter t_setup =   181.0000p       ***
  
 q_max=   1.8226     at=   2.0373n
             from=   1.8000n    to=   3.5000n

          ***** job concluded
 ******
 setup_sweep

 ****** transient analysis tnom=  25.000 temp=  25.000 ******
  *** parameter t_setup =   180.0000p       ***
  
 q_max=   1.8227     at=   2.0392n
             from=   1.8000n    to=   3.5000n

          ***** job concluded
 ******
 setup_sweep

 ****** transient analysis tnom=  25.000 temp=  25.000 ******
  *** parameter t_setup =   179.0000p       ***
  
 q_max=   1.8226     at=   2.0383n
             from=   1.8000n    to=   3.5000n

          ***** job concluded
 ******
 setup_sweep

 ****** transient analysis tnom=  25.000 temp=  25.000 ******
  *** parameter t_setup =   178.0000p       ***
  
 q_max=   1.8222     at=   2.0370n
             from=   1.8000n    to=   3.5000n

          ***** job concluded
 ******
 setup_sweep

 ****** transient analysis tnom=  25.000 temp=  25.000 ******
  *** parameter t_setup =   177.0000p       ***
  
 q_max=   1.8223     at=   2.0408n
             from=   1.8000n    to=   3.5000n

          ***** job concluded
 ******
 setup_sweep

 ****** transient analysis tnom=  25.000 temp=  25.000 ******
  *** parameter t_setup =   176.0000p       ***
  
 q_max=   1.8223     at=   2.0396n
             from=   1.8000n    to=   3.5000n

          ***** job concluded
 ******
 setup_sweep

 ****** transient analysis tnom=  25.000 temp=  25.000 ******
  *** parameter t_setup =   175.0000p       ***
  
 q_max=   1.8221     at=   2.0382n
             from=   1.8000n    to=   3.5000n

          ***** job concluded
 ******
 setup_sweep

 ****** transient analysis tnom=  25.000 temp=  25.000 ******
  *** parameter t_setup =   174.0000p       ***
  
 q_max=   1.8218     at=   2.0376n
             from=   1.8000n    to=   3.5000n

          ***** job concluded
 ******
 setup_sweep

 ****** transient analysis tnom=  25.000 temp=  25.000 ******
  *** parameter t_setup =   173.0000p       ***
  
 q_max=   1.8217     at=   2.0380n
             from=   1.8000n    to=   3.5000n

          ***** job concluded
 ******
 setup_sweep

 ****** transient analysis tnom=  25.000 temp=  25.000 ******
  *** parameter t_setup =   172.0000p       ***
  
 q_max=   1.8218     at=   2.0394n
             from=   1.8000n    to=   3.5000n

          ***** job concluded
 ******
 setup_sweep

 ****** transient analysis tnom=  25.000 temp=  25.000 ******
  *** parameter t_setup =   171.0000p       ***
  
 q_max=   1.8216     at=   2.0390n
             from=   1.8000n    to=   3.5000n

          ***** job concluded
 ******
 setup_sweep

 ****** transient analysis tnom=  25.000 temp=  25.000 ******
  *** parameter t_setup =   170.0000p       ***
  
 q_max=   1.8213     at=   2.0383n
             from=   1.8000n    to=   3.5000n

          ***** job concluded
 ******
 setup_sweep

 ****** transient analysis tnom=  25.000 temp=  25.000 ******
  *** parameter t_setup =   169.0000p       ***
  
 q_max=   1.8212     at=   2.0398n
             from=   1.8000n    to=   3.5000n

          ***** job concluded
 ******
 setup_sweep

 ****** transient analysis tnom=  25.000 temp=  25.000 ******
  *** parameter t_setup =   168.0000p       ***
  
 q_max=   1.8209     at=   2.0383n
             from=   1.8000n    to=   3.5000n

          ***** job concluded
 ******
 setup_sweep

 ****** transient analysis tnom=  25.000 temp=  25.000 ******
  *** parameter t_setup =   167.0000p       ***
  
 q_max=   1.8205     at=   2.0377n
             from=   1.8000n    to=   3.5000n

          ***** job concluded
 ******
 setup_sweep

 ****** transient analysis tnom=  25.000 temp=  25.000 ******
  *** parameter t_setup =   166.0000p       ***
  
 q_max=   1.8206     at=   2.0396n
             from=   1.8000n    to=   3.5000n

          ***** job concluded
 ******
 setup_sweep

 ****** transient analysis tnom=  25.000 temp=  25.000 ******
  *** parameter t_setup =   165.0000p       ***
  
 q_max=   1.8199     at=   2.0426n
             from=   1.8000n    to=   3.5000n

          ***** job concluded
 ******
 setup_sweep

 ****** transient analysis tnom=  25.000 temp=  25.000 ******
  *** parameter t_setup =   164.0000p       ***
  
 q_max=   1.8199     at=   2.0385n
             from=   1.8000n    to=   3.5000n

          ***** job concluded
 ******
 setup_sweep

 ****** transient analysis tnom=  25.000 temp=  25.000 ******
  *** parameter t_setup =   163.0000p       ***
  
 q_max=   1.8197     at=   2.0416n
             from=   1.8000n    to=   3.5000n

          ***** job concluded
 ******
 setup_sweep

 ****** transient analysis tnom=  25.000 temp=  25.000 ******
  *** parameter t_setup =   162.0000p       ***
  
 q_max=   1.8192     at=   2.0381n
             from=   1.8000n    to=   3.5000n

          ***** job concluded
 ******
 setup_sweep

 ****** transient analysis tnom=  25.000 temp=  25.000 ******
  *** parameter t_setup =   161.0000p       ***
  
 q_max=   1.8193     at=   2.0402n
             from=   1.8000n    to=   3.5000n

          ***** job concluded
 ******
 setup_sweep

 ****** transient analysis tnom=  25.000 temp=  25.000 ******
  *** parameter t_setup =   160.0000p       ***
  
 q_max=   1.8187     at=   2.0387n
             from=   1.8000n    to=   3.5000n

          ***** job concluded
 ******
 setup_sweep

 ****** transient analysis tnom=  25.000 temp=  25.000 ******
  *** parameter t_setup =   159.0000p       ***
  
 q_max=   1.8185     at=   2.0422n
             from=   1.8000n    to=   3.5000n

          ***** job concluded
 ******
 setup_sweep

 ****** transient analysis tnom=  25.000 temp=  25.000 ******
  *** parameter t_setup =   158.0000p       ***
  
 q_max=   1.8182     at=   2.0416n
             from=   1.8000n    to=   3.5000n

          ***** job concluded
 ******
 setup_sweep

 ****** transient analysis tnom=  25.000 temp=  25.000 ******
  *** parameter t_setup =   157.0000p       ***
  
 q_max=   1.8175     at=   2.0433n
             from=   1.8000n    to=   3.5000n

          ***** job concluded
 ******
 setup_sweep

 ****** transient analysis tnom=  25.000 temp=  25.000 ******
  *** parameter t_setup =   156.0000p       ***
  
 q_max=   1.8167     at=   2.0380n
             from=   1.8000n    to=   3.5000n

          ***** job concluded
 ******
 setup_sweep

 ****** transient analysis tnom=  25.000 temp=  25.000 ******
  *** parameter t_setup =   155.0000p       ***
  
 q_max=   1.8164     at=   2.0444n
             from=   1.8000n    to=   3.5000n

          ***** job concluded
 ******
 setup_sweep

 ****** transient analysis tnom=  25.000 temp=  25.000 ******
  *** parameter t_setup =   154.0000p       ***
  
 q_max=   1.8166     at=   2.0411n
             from=   1.8000n    to=   3.5000n

          ***** job concluded
 ******
 setup_sweep

 ****** transient analysis tnom=  25.000 temp=  25.000 ******
  *** parameter t_setup =   153.0000p       ***
  
 q_max=   1.8158     at=   2.0435n
             from=   1.8000n    to=   3.5000n

          ***** job concluded
 ******
 setup_sweep

 ****** transient analysis tnom=  25.000 temp=  25.000 ******
  *** parameter t_setup =   152.0000p       ***
  
 q_max=   1.8151     at=   2.0444n
             from=   1.8000n    to=   3.5000n

          ***** job concluded
 ******
 setup_sweep

 ****** transient analysis tnom=  25.000 temp=  25.000 ******
  *** parameter t_setup =   151.0000p       ***
  
 q_max=   1.8150     at=   2.0411n
             from=   1.8000n    to=   3.5000n

          ***** job concluded
 ******
 setup_sweep

 ****** transient analysis tnom=  25.000 temp=  25.000 ******
  *** parameter t_setup =   150.0000p       ***
  
 q_max=   1.8141     at=   2.0399n
             from=   1.8000n    to=   3.5000n

          ***** job concluded
 ******
 setup_sweep

 ****** transient analysis tnom=  25.000 temp=  25.000 ******
  *** parameter t_setup =   149.0000p       ***
  
 q_max=   1.8138     at=   2.0416n
             from=   1.8000n    to=   3.5000n

          ***** job concluded
 ******
 setup_sweep

 ****** transient analysis tnom=  25.000 temp=  25.000 ******
  *** parameter t_setup =   148.0000p       ***
  
 q_max=   1.8130     at=   2.0408n
             from=   1.8000n    to=   3.5000n

          ***** job concluded
 ******
 setup_sweep

 ****** transient analysis tnom=  25.000 temp=  25.000 ******
  *** parameter t_setup =   147.0000p       ***
  
 q_max=   1.8119     at=   2.0398n
             from=   1.8000n    to=   3.5000n

          ***** job concluded
 ******
 setup_sweep

 ****** transient analysis tnom=  25.000 temp=  25.000 ******
  *** parameter t_setup =   146.0000p       ***
  
 q_max=   1.8111     at=   2.0400n
             from=   1.8000n    to=   3.5000n

          ***** job concluded
 ******
 setup_sweep

 ****** transient analysis tnom=  25.000 temp=  25.000 ******
  *** parameter t_setup =   145.0000p       ***
  
 q_max=   1.8104     at=   2.0462n
             from=   1.8000n    to=   3.5000n

          ***** job concluded
 ******
 setup_sweep

 ****** transient analysis tnom=  25.000 temp=  25.000 ******
  *** parameter t_setup =   144.0000p       ***
  
 q_max=   1.8097     at=   2.0463n
             from=   1.8000n    to=   3.5000n

          ***** job concluded
 ******
 setup_sweep

 ****** transient analysis tnom=  25.000 temp=  25.000 ******
  *** parameter t_setup =   143.0000p       ***
  
 q_max=   1.8092     at=   2.0416n
             from=   1.8000n    to=   3.5000n

          ***** job concluded
 ******
 setup_sweep

 ****** transient analysis tnom=  25.000 temp=  25.000 ******
  *** parameter t_setup =   142.0000p       ***
  
 q_max=   1.8085     at=   2.0455n
             from=   1.8000n    to=   3.5000n

          ***** job concluded
 ******
 setup_sweep

 ****** transient analysis tnom=  25.000 temp=  25.000 ******
  *** parameter t_setup =   141.0000p       ***
  
 q_max=   1.8075     at=   2.0423n
             from=   1.8000n    to=   3.5000n

          ***** job concluded
 ******
 setup_sweep

 ****** transient analysis tnom=  25.000 temp=  25.000 ******
  *** parameter t_setup =   140.0000p       ***
  
 q_max=   1.8065     at=   2.0424n
             from=   1.8000n    to=   3.5000n

          ***** job concluded
 ******
 setup_sweep

 ****** transient analysis tnom=  25.000 temp=  25.000 ******
  *** parameter t_setup =   139.0000p       ***
  
 q_max=   1.8052     at=   2.0420n
             from=   1.8000n    to=   3.5000n

          ***** job concluded
 ******
 setup_sweep

 ****** transient analysis tnom=  25.000 temp=  25.000 ******
  *** parameter t_setup =   138.0000p       ***
  
 q_max=   1.8043     at=   2.0427n
             from=   1.8000n    to=   3.5000n

          ***** job concluded
 ******
 setup_sweep

 ****** transient analysis tnom=  25.000 temp=  25.000 ******
  *** parameter t_setup =   137.0000p       ***
  
 q_max=   1.8033     at=   2.0478n
             from=   1.8000n    to=   3.5000n

          ***** job concluded
 ******
 setup_sweep

 ****** transient analysis tnom=  25.000 temp=  25.000 ******
  *** parameter t_setup =   136.0000p       ***
  
 q_max=   1.8026     at=   2.0466n
             from=   1.8000n    to=   3.5000n

          ***** job concluded
 ******
 setup_sweep

 ****** transient analysis tnom=  25.000 temp=  25.000 ******
  *** parameter t_setup =   135.0000p       ***
  
 q_max=   1.8014     at=   2.0453n
             from=   1.8000n    to=   3.5000n

          ***** job concluded
 ******
 setup_sweep

 ****** transient analysis tnom=  25.000 temp=  25.000 ******
  *** parameter t_setup =   134.0000p       ***
  
 q_max=   1.8002     at=   2.0475n
             from=   1.8000n    to=   3.5000n

          ***** job concluded
 ******
 setup_sweep

 ****** transient analysis tnom=  25.000 temp=  25.000 ******
  *** parameter t_setup =   133.0000p       ***
  
 q_max=   1.7998     at=   3.5000n
             from=   1.8000n    to=   3.5000n

          ***** job concluded
 ******
 setup_sweep

 ****** transient analysis tnom=  25.000 temp=  25.000 ******
  *** parameter t_setup =   132.0000p       ***
  
 q_max=   1.7998     at=   3.5000n
             from=   1.8000n    to=   3.5000n

          ***** job concluded
 ******
 setup_sweep

 ****** transient analysis tnom=  25.000 temp=  25.000 ******
  *** parameter t_setup =   131.0000p       ***
  
 q_max=   1.7998     at=   3.5000n
             from=   1.8000n    to=   3.5000n

          ***** job concluded
 ******
 setup_sweep

 ****** transient analysis tnom=  25.000 temp=  25.000 ******
  *** parameter t_setup =   130.0000p       ***
  
 q_max=   1.7998     at=   3.5000n
             from=   1.8000n    to=   3.5000n

          ***** job concluded
 ******
 setup_sweep

 ****** transient analysis tnom=  25.000 temp=  25.000 ******
  *** parameter t_setup =   129.0000p       ***
  
 q_max=   1.7998     at=   3.5000n
             from=   1.8000n    to=   3.5000n

          ***** job concluded
 ******
 setup_sweep

 ****** transient analysis tnom=  25.000 temp=  25.000 ******
  *** parameter t_setup =   128.0000p       ***
  
 q_max=   1.7998     at=   3.5000n
             from=   1.8000n    to=   3.5000n

          ***** job concluded
 ******
 setup_sweep

 ****** transient analysis tnom=  25.000 temp=  25.000 ******
  *** parameter t_setup =   127.0000p       ***
  
 q_max=   1.7998     at=   3.5000n
             from=   1.8000n    to=   3.5000n

          ***** job concluded
 ******
 setup_sweep

 ****** transient analysis tnom=  25.000 temp=  25.000 ******
  *** parameter t_setup =   126.0000p       ***
  
 q_max=   1.7998     at=   3.5000n
             from=   1.8000n    to=   3.5000n

          ***** job concluded
 ******
 setup_sweep

 ****** transient analysis tnom=  25.000 temp=  25.000 ******
  *** parameter t_setup =   125.0000p       ***
  
 q_max=   1.7998     at=   3.5000n
             from=   1.8000n    to=   3.5000n

          ***** job concluded
 ******
 setup_sweep

 ****** transient analysis tnom=  25.000 temp=  25.000 ******
  *** parameter t_setup =   124.0000p       ***
  
 q_max=   1.7998     at=   3.5000n
             from=   1.8000n    to=   3.5000n

          ***** job concluded
 ******
 setup_sweep

 ****** transient analysis tnom=  25.000 temp=  25.000 ******
  *** parameter t_setup =   123.0000p       ***
  
 q_max=   1.7998     at=   3.5000n
             from=   1.8000n    to=   3.5000n

          ***** job concluded
 ******
 setup_sweep

 ****** transient analysis tnom=  25.000 temp=  25.000 ******
  *** parameter t_setup =   122.0000p       ***
  
 q_max=   1.7998     at=   3.5000n
             from=   1.8000n    to=   3.5000n

          ***** job concluded
 ******
 setup_sweep

 ****** transient analysis tnom=  25.000 temp=  25.000 ******
  *** parameter t_setup =   121.0000p       ***
  
 q_max=   1.7998     at=   3.5000n
             from=   1.8000n    to=   3.5000n

          ***** job concluded
 ******
 setup_sweep

 ****** transient analysis tnom=  25.000 temp=  25.000 ******
  *** parameter t_setup =   120.0000p       ***
  
 q_max=   1.7998     at=   3.5000n
             from=   1.8000n    to=   3.5000n

          ***** job concluded
 ******
 setup_sweep

 ****** transient analysis tnom=  25.000 temp=  25.000 ******
  *** parameter t_setup =   119.0000p       ***
  
 q_max=   1.7998     at=   3.5000n
             from=   1.8000n    to=   3.5000n

          ***** job concluded
 ******
 setup_sweep

 ****** transient analysis tnom=  25.000 temp=  25.000 ******
  *** parameter t_setup =   118.0000p       ***
  
 q_max=   1.7998     at=   3.5000n
             from=   1.8000n    to=   3.5000n

          ***** job concluded
 ******
 setup_sweep

 ****** transient analysis tnom=  25.000 temp=  25.000 ******
  *** parameter t_setup =   117.0000p       ***
  
 q_max=   1.7998     at=   3.5000n
             from=   1.8000n    to=   3.5000n

          ***** job concluded
 ******
 setup_sweep

 ****** transient analysis tnom=  25.000 temp=  25.000 ******
  *** parameter t_setup =   116.0000p       ***
  
 q_max=   1.7998     at=   3.5000n
             from=   1.8000n    to=   3.5000n

          ***** job concluded
 ******
 setup_sweep

 ****** transient analysis tnom=  25.000 temp=  25.000 ******
  *** parameter t_setup =   115.0000p       ***
  
 q_max=   1.7998     at=   3.5000n
             from=   1.8000n    to=   3.5000n

          ***** job concluded
 ******
 setup_sweep

 ****** transient analysis tnom=  25.000 temp=  25.000 ******
  *** parameter t_setup =   114.0000p       ***
  
 q_max=   1.7998     at=   3.5000n
             from=   1.8000n    to=   3.5000n

          ***** job concluded
 ******
 setup_sweep

 ****** transient analysis tnom=  25.000 temp=  25.000 ******
  *** parameter t_setup =   113.0000p       ***
  
 q_max=   1.7998     at=   3.5000n
             from=   1.8000n    to=   3.5000n

          ***** job concluded
 ******
 setup_sweep

 ****** transient analysis tnom=  25.000 temp=  25.000 ******
  *** parameter t_setup =   112.0000p       ***
  
 q_max=   1.7998     at=   3.5000n
             from=   1.8000n    to=   3.5000n

          ***** job concluded
 ******
 setup_sweep

 ****** transient analysis tnom=  25.000 temp=  25.000 ******
  *** parameter t_setup =   111.0000p       ***
  
 q_max=   1.7998     at=   3.5000n
             from=   1.8000n    to=   3.5000n

          ***** job concluded
 ******
 setup_sweep

 ****** transient analysis tnom=  25.000 temp=  25.000 ******
  *** parameter t_setup =   110.0000p       ***
  
 q_max=   1.7998     at=   3.5000n
             from=   1.8000n    to=   3.5000n

          ***** job concluded
 ******
 setup_sweep

 ****** transient analysis tnom=  25.000 temp=  25.000 ******
  *** parameter t_setup =   109.0000p       ***
  
 q_max=   1.7998     at=   3.5000n
             from=   1.8000n    to=   3.5000n

          ***** job concluded
 ******
 setup_sweep

 ****** transient analysis tnom=  25.000 temp=  25.000 ******
  *** parameter t_setup =   108.0000p       ***
  
 q_max=   1.7998     at=   3.5000n
             from=   1.8000n    to=   3.5000n

          ***** job concluded
 ******
 setup_sweep

 ****** transient analysis tnom=  25.000 temp=  25.000 ******
  *** parameter t_setup =   107.0000p       ***
  
 q_max=   1.7998     at=   3.5000n
             from=   1.8000n    to=   3.5000n

          ***** job concluded
 ******
 setup_sweep

 ****** transient analysis tnom=  25.000 temp=  25.000 ******
  *** parameter t_setup =   106.0000p       ***
  
 q_max=   1.7998     at=   3.5000n
             from=   1.8000n    to=   3.5000n

          ***** job concluded
 ******
 setup_sweep

 ****** transient analysis tnom=  25.000 temp=  25.000 ******
  *** parameter t_setup =   105.0000p       ***
  
 q_max=   1.7998     at=   3.5000n
             from=   1.8000n    to=   3.5000n

          ***** job concluded
 ******
 setup_sweep

 ****** transient analysis tnom=  25.000 temp=  25.000 ******
  *** parameter t_setup =   104.0000p       ***
  
 q_max=   1.7998     at=   3.5000n
             from=   1.8000n    to=   3.5000n

          ***** job concluded
 ******
 setup_sweep

 ****** transient analysis tnom=  25.000 temp=  25.000 ******
  *** parameter t_setup =   103.0000p       ***
  
 q_max=   1.7998     at=   3.5000n
             from=   1.8000n    to=   3.5000n

          ***** job concluded
 ******
 setup_sweep

 ****** transient analysis tnom=  25.000 temp=  25.000 ******
  *** parameter t_setup =   102.0000p       ***
  
 q_max=   1.7998     at=   3.5000n
             from=   1.8000n    to=   3.5000n

          ***** job concluded
 ******
 setup_sweep

 ****** transient analysis tnom=  25.000 temp=  25.000 ******
  *** parameter t_setup =   101.0000p       ***
  
 q_max=   1.7998     at=   3.5000n
             from=   1.8000n    to=   3.5000n

          ***** job concluded
 ******
 setup_sweep

 ****** transient analysis tnom=  25.000 temp=  25.000 ******
  *** parameter t_setup =   100.0000p       ***
  
 q_max=   1.7998     at=   3.5000n
             from=   1.8000n    to=   3.5000n

          ***** job concluded
 ******
 setup_sweep

 ****** transient analysis tnom=  25.000 temp=  25.000 ******
  *** parameter t_setup =    99.0000p       ***
  
 q_max=   1.7998     at=   3.5000n
             from=   1.8000n    to=   3.5000n

          ***** job concluded
 ******
 setup_sweep

 ****** transient analysis tnom=  25.000 temp=  25.000 ******
  *** parameter t_setup =    98.0000p       ***
  
 q_max=   1.7998     at=   3.5000n
             from=   1.8000n    to=   3.5000n

          ***** job concluded
 ******
 setup_sweep

 ****** transient analysis tnom=  25.000 temp=  25.000 ******
  *** parameter t_setup =    97.0000p       ***
  
 q_max=   1.7998     at=   3.5000n
             from=   1.8000n    to=   3.5000n

          ***** job concluded
 ******
 setup_sweep

 ****** transient analysis tnom=  25.000 temp=  25.000 ******
  *** parameter t_setup =    96.0000p       ***
  
 q_max=   1.7998     at=   3.5000n
             from=   1.8000n    to=   3.5000n

          ***** job concluded
 ******
 setup_sweep

 ****** transient analysis tnom=  25.000 temp=  25.000 ******
  *** parameter t_setup =    95.0000p       ***
  
 q_max=   1.7998     at=   3.5000n
             from=   1.8000n    to=   3.5000n

          ***** job concluded
 ******
 setup_sweep

 ****** transient analysis tnom=  25.000 temp=  25.000 ******
  *** parameter t_setup =    94.0000p       ***
  
 q_max=   1.7998     at=   3.5000n
             from=   1.8000n    to=   3.5000n

          ***** job concluded
 ******
 setup_sweep

 ****** transient analysis tnom=  25.000 temp=  25.000 ******
  *** parameter t_setup =    93.0000p       ***
  
 q_max=   1.7998     at=   3.5000n
             from=   1.8000n    to=   3.5000n

          ***** job concluded
 ******
 setup_sweep

 ****** transient analysis tnom=  25.000 temp=  25.000 ******
  *** parameter t_setup =    92.0000p       ***
  
 q_max=   1.7998     at=   3.5000n
             from=   1.8000n    to=   3.5000n

          ***** job concluded
 ******
 setup_sweep

 ****** transient analysis tnom=  25.000 temp=  25.000 ******
  *** parameter t_setup =    91.0000p       ***
  
 q_max=   1.7998     at=   3.5000n
             from=   1.8000n    to=   3.5000n

          ***** job concluded
 ******
 setup_sweep

 ****** transient analysis tnom=  25.000 temp=  25.000 ******
  *** parameter t_setup =    90.0000p       ***
  
 q_max=   1.7998     at=   3.5000n
             from=   1.8000n    to=   3.5000n

          ***** job concluded
 ******
 setup_sweep

 ****** transient analysis tnom=  25.000 temp=  25.000 ******
  *** parameter t_setup =    89.0000p       ***
  
 q_max=   1.7998     at=   3.5000n
             from=   1.8000n    to=   3.5000n

          ***** job concluded
 ******
 setup_sweep

 ****** transient analysis tnom=  25.000 temp=  25.000 ******
  *** parameter t_setup =    88.0000p       ***
  
 q_max=   1.7998     at=   3.5000n
             from=   1.8000n    to=   3.5000n

          ***** job concluded
 ******
 setup_sweep

 ****** transient analysis tnom=  25.000 temp=  25.000 ******
  *** parameter t_setup =    87.0000p       ***
  
 q_max=   1.7998     at=   3.5000n
             from=   1.8000n    to=   3.5000n

          ***** job concluded
 ******
 setup_sweep

 ****** transient analysis tnom=  25.000 temp=  25.000 ******
  *** parameter t_setup =    86.0000p       ***
  
 q_max=   1.7998     at=   3.5000n
             from=   1.8000n    to=   3.5000n

          ***** job concluded
 ******
 setup_sweep

 ****** transient analysis tnom=  25.000 temp=  25.000 ******
  *** parameter t_setup =    85.0000p       ***
  
 q_max=   1.7998     at=   3.5000n
             from=   1.8000n    to=   3.5000n

          ***** job concluded
 ******
 setup_sweep

 ****** transient analysis tnom=  25.000 temp=  25.000 ******
  *** parameter t_setup =    84.0000p       ***
  
 q_max=   1.7998     at=   3.5000n
             from=   1.8000n    to=   3.5000n

          ***** job concluded
 ******
 setup_sweep

 ****** transient analysis tnom=  25.000 temp=  25.000 ******
  *** parameter t_setup =    83.0000p       ***
  
 q_max=   1.7998     at=   3.5000n
             from=   1.8000n    to=   3.5000n

          ***** job concluded
 ******
 setup_sweep

 ****** transient analysis tnom=  25.000 temp=  25.000 ******
  *** parameter t_setup =    82.0000p       ***
  
 q_max=   1.7998     at=   3.5000n
             from=   1.8000n    to=   3.5000n

          ***** job concluded
 ******
 setup_sweep

 ****** transient analysis tnom=  25.000 temp=  25.000 ******
  *** parameter t_setup =    81.0000p       ***
  
 q_max=   1.7998     at=   3.5000n
             from=   1.8000n    to=   3.5000n

          ***** job concluded
 ******
 setup_sweep

 ****** transient analysis tnom=  25.000 temp=  25.000 ******
  *** parameter t_setup =    80.0000p       ***
  
 q_max=   1.7998     at=   3.5000n
             from=   1.8000n    to=   3.5000n

          ***** job concluded
 ******
 setup_sweep

 ****** transient analysis tnom=  25.000 temp=  25.000 ******
  *** parameter t_setup =    79.0000p       ***
  
 q_max=   1.7998     at=   3.5000n
             from=   1.8000n    to=   3.5000n

          ***** job concluded
 ******
 setup_sweep

 ****** transient analysis tnom=  25.000 temp=  25.000 ******
  *** parameter t_setup =    78.0000p       ***
  
 q_max=   1.7998     at=   3.5000n
             from=   1.8000n    to=   3.5000n

          ***** job concluded
 ******
 setup_sweep

 ****** transient analysis tnom=  25.000 temp=  25.000 ******
  *** parameter t_setup =    77.0000p       ***
  
 q_max=   1.7998     at=   3.5000n
             from=   1.8000n    to=   3.5000n

          ***** job concluded
 ******
 setup_sweep

 ****** transient analysis tnom=  25.000 temp=  25.000 ******
  *** parameter t_setup =    76.0000p       ***
  
 q_max=   1.7998     at=   3.5000n
             from=   1.8000n    to=   3.5000n

          ***** job concluded
 ******
 setup_sweep

 ****** transient analysis tnom=  25.000 temp=  25.000 ******
  *** parameter t_setup =    75.0000p       ***
  
 q_max=   1.7998     at=   3.5000n
             from=   1.8000n    to=   3.5000n

          ***** job concluded
 ******
 setup_sweep

 ****** transient analysis tnom=  25.000 temp=  25.000 ******
  *** parameter t_setup =    74.0000p       ***
  
 q_max=   1.7998     at=   3.5000n
             from=   1.8000n    to=   3.5000n

          ***** job concluded
 ******
 setup_sweep

 ****** transient analysis tnom=  25.000 temp=  25.000 ******
  *** parameter t_setup =    73.0000p       ***
  
 q_max=   1.7998     at=   3.5000n
             from=   1.8000n    to=   3.5000n

          ***** job concluded
 ******
 setup_sweep

 ****** transient analysis tnom=  25.000 temp=  25.000 ******
  *** parameter t_setup =    72.0000p       ***
  
 q_max=   1.7998     at=   3.5000n
             from=   1.8000n    to=   3.5000n

          ***** job concluded
 ******
 setup_sweep

 ****** transient analysis tnom=  25.000 temp=  25.000 ******
  *** parameter t_setup =    71.0000p       ***
  
 q_max=   1.7998     at=   3.5000n
             from=   1.8000n    to=   3.5000n

          ***** job concluded
 ******
 setup_sweep

 ****** transient analysis tnom=  25.000 temp=  25.000 ******
  *** parameter t_setup =    70.0000p       ***
  
 q_max=   1.7998     at=   3.5000n
             from=   1.8000n    to=   3.5000n

          ***** job concluded
 ******
 setup_sweep

 ****** transient analysis tnom=  25.000 temp=  25.000 ******
  *** parameter t_setup =    69.0000p       ***
  
 q_max=   1.7998     at=   3.5000n
             from=   1.8000n    to=   3.5000n

          ***** job concluded
 ******
 setup_sweep

 ****** transient analysis tnom=  25.000 temp=  25.000 ******
  *** parameter t_setup =    68.0000p       ***
  
 q_max=   1.7998     at=   3.5000n
             from=   1.8000n    to=   3.5000n

          ***** job concluded
 ******
 setup_sweep

 ****** transient analysis tnom=  25.000 temp=  25.000 ******
  *** parameter t_setup =    67.0000p       ***
  
 q_max=   1.7998     at=   3.5000n
             from=   1.8000n    to=   3.5000n

          ***** job concluded
 ******
 setup_sweep

 ****** transient analysis tnom=  25.000 temp=  25.000 ******
  *** parameter t_setup =    66.0000p       ***
  
 q_max=   1.7998     at=   3.5000n
             from=   1.8000n    to=   3.5000n

          ***** job concluded
 ******
 setup_sweep

 ****** transient analysis tnom=  25.000 temp=  25.000 ******
  *** parameter t_setup =    65.0000p       ***
  
 q_max=   1.7998     at=   3.4770n
             from=   1.8000n    to=   3.5000n

          ***** job concluded
 ******
 setup_sweep

 ****** transient analysis tnom=  25.000 temp=  25.000 ******
  *** parameter t_setup =    64.0000p       ***
  
 q_max=   1.7998     at=   3.5000n
             from=   1.8000n    to=   3.5000n

          ***** job concluded
 ******
 setup_sweep

 ****** transient analysis tnom=  25.000 temp=  25.000 ******
  *** parameter t_setup =    63.0000p       ***
  
 q_max=   1.7998     at=   3.5000n
             from=   1.8000n    to=   3.5000n

          ***** job concluded
 ******
 setup_sweep

 ****** transient analysis tnom=  25.000 temp=  25.000 ******
  *** parameter t_setup =    62.0000p       ***
  
 q_max=   1.7998     at=   3.5000n
             from=   1.8000n    to=   3.5000n

          ***** job concluded
 ******
 setup_sweep

 ****** transient analysis tnom=  25.000 temp=  25.000 ******
  *** parameter t_setup =    61.0000p       ***
  
 q_max=   1.7998     at=   3.5000n
             from=   1.8000n    to=   3.5000n

          ***** job concluded
 ******
 setup_sweep

 ****** transient analysis tnom=  25.000 temp=  25.000 ******
  *** parameter t_setup =    60.0000p       ***
  
 q_max=   1.7998     at=   3.5000n
             from=   1.8000n    to=   3.5000n

          ***** job concluded
 ******
 setup_sweep

 ****** transient analysis tnom=  25.000 temp=  25.000 ******
  *** parameter t_setup =    59.0000p       ***
  
 q_max=   1.7998     at=   3.5000n
             from=   1.8000n    to=   3.5000n

          ***** job concluded
 ******
 setup_sweep

 ****** transient analysis tnom=  25.000 temp=  25.000 ******
  *** parameter t_setup =    58.0000p       ***
  
 q_max=   1.7998     at=   3.5000n
             from=   1.8000n    to=   3.5000n

          ***** job concluded
 ******
 setup_sweep

 ****** transient analysis tnom=  25.000 temp=  25.000 ******
  *** parameter t_setup =    57.0000p       ***
  
 q_max=   1.7998     at=   3.5000n
             from=   1.8000n    to=   3.5000n

          ***** job concluded
 ******
 setup_sweep

 ****** transient analysis tnom=  25.000 temp=  25.000 ******
  *** parameter t_setup =    56.0000p       ***
  
 q_max=   1.7998     at=   3.5000n
             from=   1.8000n    to=   3.5000n

          ***** job concluded
 ******
 setup_sweep

 ****** transient analysis tnom=  25.000 temp=  25.000 ******
  *** parameter t_setup =    55.0000p       ***
  
 q_max=   1.1699     at=   2.0489n
             from=   1.8000n    to=   3.5000n

          ***** job concluded
 ******
 setup_sweep

 ****** transient analysis tnom=  25.000 temp=  25.000 ******
  *** parameter t_setup =    54.0000p       ***
  
 q_max=   1.1449     at=   2.0505n
             from=   1.8000n    to=   3.5000n

          ***** job concluded
 ******
 setup_sweep

 ****** transient analysis tnom=  25.000 temp=  25.000 ******
  *** parameter t_setup =    53.0000p       ***
  
 q_max=   1.1195     at=   2.0489n
             from=   1.8000n    to=   3.5000n

          ***** job concluded
 ******
 setup_sweep

 ****** transient analysis tnom=  25.000 temp=  25.000 ******
  *** parameter t_setup =    52.0000p       ***
  
 q_max=   1.0931     at=   2.0489n
             from=   1.8000n    to=   3.5000n

          ***** job concluded
 ******
 setup_sweep

 ****** transient analysis tnom=  25.000 temp=  25.000 ******
  *** parameter t_setup =    51.0000p       ***
  
 q_max=   1.0667     at=   2.0473n
             from=   1.8000n    to=   3.5000n

          ***** job concluded
 ******
 setup_sweep

 ****** transient analysis tnom=  25.000 temp=  25.000 ******
  *** parameter t_setup =    50.0000p       ***
  
 q_max=   1.0391     at=   2.0473n
             from=   1.8000n    to=   3.5000n

          ***** job concluded
 ******
 setup_sweep

 ****** transient analysis tnom=  25.000 temp=  25.000 ******
  *** parameter t_setup =    49.0000p       ***
  
 q_max=   1.0103     at=   2.0472n
             from=   1.8000n    to=   3.5000n

          ***** job concluded
 ******
 setup_sweep

 ****** transient analysis tnom=  25.000 temp=  25.000 ******
  *** parameter t_setup =    48.0000p       ***
  
 q_max= 980.0395m    at=   2.0468n
             from=   1.8000n    to=   3.5000n

          ***** job concluded
 ******
 setup_sweep

 ****** transient analysis tnom=  25.000 temp=  25.000 ******
  *** parameter t_setup =    47.0000p       ***
  
 q_max= 947.8206m    at=   2.0461n
             from=   1.8000n    to=   3.5000n

          ***** job concluded
 ******
 setup_sweep

 ****** transient analysis tnom=  25.000 temp=  25.000 ******
  *** parameter t_setup =    46.0000p       ***
  
 q_max= 914.2521m    at=   2.0473n
             from=   1.8000n    to=   3.5000n

          ***** job concluded
 ******
 setup_sweep

 ****** transient analysis tnom=  25.000 temp=  25.000 ******
  *** parameter t_setup =    45.0000p       ***
  
 q_max= 879.2256m    at=   2.0464n
             from=   1.8000n    to=   3.5000n

          ***** job concluded
 ******
 setup_sweep

 ****** transient analysis tnom=  25.000 temp=  25.000 ******
  *** parameter t_setup =    44.0000p       ***
  
 q_max= 842.4365m    at=   2.0460n
             from=   1.8000n    to=   3.5000n

          ***** job concluded
 ******
 setup_sweep

 ****** transient analysis tnom=  25.000 temp=  25.000 ******
  *** parameter t_setup =    43.0000p       ***
  
 q_max= 803.6389m    at=   2.0458n
             from=   1.8000n    to=   3.5000n

          ***** job concluded
 ******
 setup_sweep

 ****** transient analysis tnom=  25.000 temp=  25.000 ******
  *** parameter t_setup =    42.0000p       ***
  
 q_max= 763.9068m    at=   2.0435n
             from=   1.8000n    to=   3.5000n

          ***** job concluded
 ******
 setup_sweep

 ****** transient analysis tnom=  25.000 temp=  25.000 ******
  *** parameter t_setup =    41.0000p       ***
  
 q_max= 724.3202m    at=   2.0435n
             from=   1.8000n    to=   3.5000n

          ***** job concluded
 ******
 setup_sweep

 ****** transient analysis tnom=  25.000 temp=  25.000 ******
  *** parameter t_setup =    40.0000p       ***
  
 q_max= 680.8507m    at=   2.0421n
             from=   1.8000n    to=   3.5000n

          ***** job concluded
 ******
 setup_sweep

 ****** transient analysis tnom=  25.000 temp=  25.000 ******
  *** parameter t_setup =    39.0000p       ***
  
 q_max= 637.2719m    at=   2.0435n
             from=   1.8000n    to=   3.5000n

          ***** job concluded
 ******
 setup_sweep

 ****** transient analysis tnom=  25.000 temp=  25.000 ******
  *** parameter t_setup =    38.0000p       ***
  
 q_max= 592.9849m    at=   2.0420n
             from=   1.8000n    to=   3.5000n

          ***** job concluded
 ******
 setup_sweep

 ****** transient analysis tnom=  25.000 temp=  25.000 ******
  *** parameter t_setup =    37.0000p       ***
  
 q_max= 545.4964m    at=   2.0413n
             from=   1.8000n    to=   3.5000n

          ***** job concluded
 ******
 setup_sweep

 ****** transient analysis tnom=  25.000 temp=  25.000 ******
  *** parameter t_setup =    36.0000p       ***
  
 q_max= 493.9488m    at=   2.0402n
             from=   1.8000n    to=   3.5000n

          ***** job concluded
 ******
 setup_sweep

 ****** transient analysis tnom=  25.000 temp=  25.000 ******
  *** parameter t_setup =    35.0000p       ***
  
 q_max= 441.0802m    at=   2.0396n
             from=   1.8000n    to=   3.5000n

          ***** job concluded
 ******
 setup_sweep

 ****** transient analysis tnom=  25.000 temp=  25.000 ******
  *** parameter t_setup =    34.0000p       ***
  
 q_max= 389.5670m    at=   2.0370n
             from=   1.8000n    to=   3.5000n

          ***** job concluded
 ******
 setup_sweep

 ****** transient analysis tnom=  25.000 temp=  25.000 ******
  *** parameter t_setup =    33.0000p       ***
  
 q_max= 339.2296m    at=   2.0366n
             from=   1.8000n    to=   3.5000n

          ***** job concluded
 ******
 setup_sweep

 ****** transient analysis tnom=  25.000 temp=  25.000 ******
  *** parameter t_setup =    32.0000p       ***
  
 q_max= 290.2580m    at=   2.0352n
             from=   1.8000n    to=   3.5000n

          ***** job concluded
 ******
 setup_sweep

 ****** transient analysis tnom=  25.000 temp=  25.000 ******
  *** parameter t_setup =    31.0000p       ***
  
 q_max= 243.5856m    at=   2.0350n
             from=   1.8000n    to=   3.5000n

          ***** job concluded
 ******
 setup_sweep

 ****** transient analysis tnom=  25.000 temp=  25.000 ******
  *** parameter t_setup =    30.0000p       ***
  
 q_max= 203.9089m    at=   2.0333n
             from=   1.8000n    to=   3.5000n

          ***** job concluded
 ******
 setup_sweep

 ****** transient analysis tnom=  25.000 temp=  25.000 ******
  *** parameter t_setup =    29.0000p       ***
  
 q_max= 171.9328m    at=   2.0333n
             from=   1.8000n    to=   3.5000n

          ***** job concluded
 ******
 setup_sweep

 ****** transient analysis tnom=  25.000 temp=  25.000 ******
  *** parameter t_setup =    28.0000p       ***
  
 q_max= 146.2458m    at=   2.0337n
             from=   1.8000n    to=   3.5000n

          ***** job concluded
 ******
 setup_sweep

 ****** transient analysis tnom=  25.000 temp=  25.000 ******
  *** parameter t_setup =    27.0000p       ***
  
 q_max= 124.9150m    at=   2.0334n
             from=   1.8000n    to=   3.5000n

          ***** job concluded
 ******
 setup_sweep

 ****** transient analysis tnom=  25.000 temp=  25.000 ******
  *** parameter t_setup =    26.0000p       ***
  
 q_max= 106.8464m    at=   2.0325n
             from=   1.8000n    to=   3.5000n

          ***** job concluded
 ******
 setup_sweep

 ****** transient analysis tnom=  25.000 temp=  25.000 ******
  *** parameter t_setup =    25.0000p       ***
  
 q_max=  92.8543m    at=   2.0340n
             from=   1.8000n    to=   3.5000n

          ***** job concluded
 ******
 setup_sweep

 ****** transient analysis tnom=  25.000 temp=  25.000 ******
  *** parameter t_setup =    24.0000p       ***
  
 q_max=  80.3332m    at=   2.0356n
             from=   1.8000n    to=   3.5000n

          ***** job concluded
 ******
 setup_sweep

 ****** transient analysis tnom=  25.000 temp=  25.000 ******
  *** parameter t_setup =    23.0000p       ***
  
 q_max=  69.8460m    at=   2.0355n
             from=   1.8000n    to=   3.5000n

          ***** job concluded
 ******
 setup_sweep

 ****** transient analysis tnom=  25.000 temp=  25.000 ******
  *** parameter t_setup =    22.0000p       ***
  
 q_max=  60.4481m    at=   2.0345n
             from=   1.8000n    to=   3.5000n

          ***** job concluded
 ******
 setup_sweep

 ****** transient analysis tnom=  25.000 temp=  25.000 ******
  *** parameter t_setup =    21.0000p       ***
  
 q_max=  52.3593m    at=   2.0359n
             from=   1.8000n    to=   3.5000n

          ***** job concluded
 ******
 setup_sweep

 ****** transient analysis tnom=  25.000 temp=  25.000 ******
  *** parameter t_setup =    20.0000p       ***
  
 q_max=  45.3659m    at=   2.0363n
             from=   1.8000n    to=   3.5000n

[...]
  *** parameter t_hold =   128.0000p       ***
  
 q_min=   1.7958     at=   2.0085n
             from=   1.8000n    to=   3.5000n

          ***** job concluded
 ******
 hold_sweep

 ****** transient analysis tnom=  25.000 temp=  25.000 ******
  *** parameter t_hold =   129.0000p       ***
  
 q_min=   1.7958     at=   2.0085n
             from=   1.8000n    to=   3.5000n

          ***** job concluded
 ******
 hold_sweep

 ****** transient analysis tnom=  25.000 temp=  25.000 ******
  *** parameter t_hold =   130.0000p       ***
  
 q_min=   1.7958     at=   2.0085n
             from=   1.8000n    to=   3.5000n

          ***** job concluded
 ******
 hold_sweep

 ****** transient analysis tnom=  25.000 temp=  25.000 ******
  *** parameter t_hold =   131.0000p       ***
  
 q_min=   1.7958     at=   2.0085n
             from=   1.8000n    to=   3.5000n

          ***** job concluded
 ******
 hold_sweep

 ****** transient analysis tnom=  25.000 temp=  25.000 ******
  *** parameter t_hold =   132.0000p       ***
  
 q_min=   1.7958     at=   2.0085n
             from=   1.8000n    to=   3.5000n

          ***** job concluded
 ******
 hold_sweep

 ****** transient analysis tnom=  25.000 temp=  25.000 ******
  *** parameter t_hold =   133.0000p       ***
  
 q_min=   1.7958     at=   2.0085n
             from=   1.8000n    to=   3.5000n

          ***** job concluded
 ******
 hold_sweep

 ****** transient analysis tnom=  25.000 temp=  25.000 ******
  *** parameter t_hold =   134.0000p       ***
  
 q_min=   1.7958     at=   2.0085n
             from=   1.8000n    to=   3.5000n

          ***** job concluded
 ******
 hold_sweep

 ****** transient analysis tnom=  25.000 temp=  25.000 ******
  *** parameter t_hold =   135.0000p       ***
  
 q_min=   1.7958     at=   2.0085n
             from=   1.8000n    to=   3.5000n

          ***** job concluded
 ******
 hold_sweep

 ****** transient analysis tnom=  25.000 temp=  25.000 ******
  *** parameter t_hold =   136.0000p       ***
  
 q_min=   1.7958     at=   2.0085n
             from=   1.8000n    to=   3.5000n

          ***** job concluded
 ******
 hold_sweep

 ****** transient analysis tnom=  25.000 temp=  25.000 ******
  *** parameter t_hold =   137.0000p       ***
  
 q_min=   1.7958     at=   2.0085n
             from=   1.8000n    to=   3.5000n

          ***** job concluded
 ******
 hold_sweep

 ****** transient analysis tnom=  25.000 temp=  25.000 ******
  *** parameter t_hold =   138.0000p       ***
  
 q_min=   1.7958     at=   2.0085n
             from=   1.8000n    to=   3.5000n

          ***** job concluded
 ******
 hold_sweep

 ****** transient analysis tnom=  25.000 temp=  25.000 ******
  *** parameter t_hold =   139.0000p       ***
  
 q_min=   1.7958     at=   2.0085n
             from=   1.8000n    to=   3.5000n

          ***** job concluded
 ******
 hold_sweep

 ****** transient analysis tnom=  25.000 temp=  25.000 ******
  *** parameter t_hold =   140.0000p       ***
  
 q_min=   1.7958     at=   2.0085n
             from=   1.8000n    to=   3.5000n

          ***** job concluded
 ******
 hold_sweep

 ****** transient analysis tnom=  25.000 temp=  25.000 ******
  *** parameter t_hold =   141.0000p       ***
  
 q_min=   1.7958     at=   2.0085n
             from=   1.8000n    to=   3.5000n

          ***** job concluded
 ******
 hold_sweep

 ****** transient analysis tnom=  25.000 temp=  25.000 ******
  *** parameter t_hold =   142.0000p       ***
  
 q_min=   1.7958     at=   2.0085n
             from=   1.8000n    to=   3.5000n

          ***** job concluded
 ******
 hold_sweep

 ****** transient analysis tnom=  25.000 temp=  25.000 ******
  *** parameter t_hold =   143.0000p       ***
  
 q_min=   1.7958     at=   2.0085n
             from=   1.8000n    to=   3.5000n

          ***** job concluded
 ******
 hold_sweep

 ****** transient analysis tnom=  25.000 temp=  25.000 ******
  *** parameter t_hold =   144.0000p       ***
  
 q_min=   1.7958     at=   2.0085n
             from=   1.8000n    to=   3.5000n

          ***** job concluded
 ******
 hold_sweep

 ****** transient analysis tnom=  25.000 temp=  25.000 ******
  *** parameter t_hold =   145.0000p       ***
  
 q_min=   1.7958     at=   2.0085n
             from=   1.8000n    to=   3.5000n

          ***** job concluded
 ******
 hold_sweep

 ****** transient analysis tnom=  25.000 temp=  25.000 ******
  *** parameter t_hold =   146.0000p       ***
  
 q_min=   1.7958     at=   2.0085n
             from=   1.8000n    to=   3.5000n

          ***** job concluded
 ******
 hold_sweep

 ****** transient analysis tnom=  25.000 temp=  25.000 ******
  *** parameter t_hold =   147.0000p       ***
  
 q_min=   1.7958     at=   2.0085n
             from=   1.8000n    to=   3.5000n

          ***** job concluded
 ******
 hold_sweep

 ****** transient analysis tnom=  25.000 temp=  25.000 ******
  *** parameter t_hold =   148.0000p       ***
  
 q_min=   1.7958     at=   2.0085n
             from=   1.8000n    to=   3.5000n

          ***** job concluded
 ******
 hold_sweep

 ****** transient analysis tnom=  25.000 temp=  25.000 ******
  *** parameter t_hold =   149.0000p       ***
  
 q_min=   1.7958     at=   2.0085n
             from=   1.8000n    to=   3.5000n

          ***** job concluded
 ******
 hold_sweep

 ****** transient analysis tnom=  25.000 temp=  25.000 ******
  *** parameter t_hold =   150.0000p       ***
  
 q_min=   1.7958     at=   2.0085n
             from=   1.8000n    to=   3.5000n

          ***** job concluded
 ******
 hold_sweep

 ****** transient analysis tnom=  25.000 temp=  25.000 ******
  *** parameter t_hold =   151.0000p       ***
  
 q_min=   1.7958     at=   2.0085n
             from=   1.8000n    to=   3.5000n

          ***** job concluded
 ******
 hold_sweep

 ****** transient analysis tnom=  25.000 temp=  25.000 ******
  *** parameter t_hold =   152.0000p       ***
  
 q_min=   1.7958     at=   2.0085n
             from=   1.8000n    to=   3.5000n

          ***** job concluded
 ******
 hold_sweep

 ****** transient analysis tnom=  25.000 temp=  25.000 ******
  *** parameter t_hold =   153.0000p       ***
  
 q_min=   1.7958     at=   2.0085n
             from=   1.8000n    to=   3.5000n

          ***** job concluded
 ******
 hold_sweep

 ****** transient analysis tnom=  25.000 temp=  25.000 ******
  *** parameter t_hold =   154.0000p       ***
  
 q_min=   1.7958     at=   2.0085n
             from=   1.8000n    to=   3.5000n

          ***** job concluded
 ******
 hold_sweep

 ****** transient analysis tnom=  25.000 temp=  25.000 ******
  *** parameter t_hold =   155.0000p       ***
  
 q_min=   1.7958     at=   2.0085n
             from=   1.8000n    to=   3.5000n

          ***** job concluded
 ******
 hold_sweep

 ****** transient analysis tnom=  25.000 temp=  25.000 ******
  *** parameter t_hold =   156.0000p       ***
  
 q_min=   1.7958     at=   2.0085n
             from=   1.8000n    to=   3.5000n

          ***** job concluded
 ******
 hold_sweep

 ****** transient analysis tnom=  25.000 temp=  25.000 ******
  *** parameter t_hold =   157.0000p       ***
  
 q_min=   1.7958     at=   2.0085n
             from=   1.8000n    to=   3.5000n

          ***** job concluded
 ******
 hold_sweep

 ****** transient analysis tnom=  25.000 temp=  25.000 ******
  *** parameter t_hold =   158.0000p       ***
  
 q_min=   1.7958     at=   2.0085n
             from=   1.8000n    to=   3.5000n

          ***** job concluded
 ******
 hold_sweep

 ****** transient analysis tnom=  25.000 temp=  25.000 ******
  *** parameter t_hold =   159.0000p       ***
  
 q_min=   1.7958     at=   2.0085n
             from=   1.8000n    to=   3.5000n

          ***** job concluded
 ******
 hold_sweep

 ****** transient analysis tnom=  25.000 temp=  25.000 ******
  *** parameter t_hold =   160.0000p       ***
  
 q_min=   1.7958     at=   2.0085n
             from=   1.8000n    to=   3.5000n

          ***** job concluded
 ******
 hold_sweep

 ****** transient analysis tnom=  25.000 temp=  25.000 ******
  *** parameter t_hold =   161.0000p       ***
  
 q_min=   1.7958     at=   2.0085n
             from=   1.8000n    to=   3.5000n

          ***** job concluded
 ******
 hold_sweep

 ****** transient analysis tnom=  25.000 temp=  25.000 ******
  *** parameter t_hold =   162.0000p       ***
  
 q_min=   1.7958     at=   2.0085n
             from=   1.8000n    to=   3.5000n

          ***** job concluded
 ******
 hold_sweep

 ****** transient analysis tnom=  25.000 temp=  25.000 ******
  *** parameter t_hold =   163.0000p       ***
  
 q_min=   1.7958     at=   2.0085n
             from=   1.8000n    to=   3.5000n

          ***** job concluded
 ******
 hold_sweep

 ****** transient analysis tnom=  25.000 temp=  25.000 ******
  *** parameter t_hold =   164.0000p       ***
  
 q_min=   1.7958     at=   2.0085n
             from=   1.8000n    to=   3.5000n

          ***** job concluded
 ******
 hold_sweep

 ****** transient analysis tnom=  25.000 temp=  25.000 ******
  *** parameter t_hold =   165.0000p       ***
  
 q_min=   1.7958     at=   2.0085n
             from=   1.8000n    to=   3.5000n

          ***** job concluded
 ******
 hold_sweep

 ****** transient analysis tnom=  25.000 temp=  25.000 ******
  *** parameter t_hold =   166.0000p       ***
  
 q_min=   1.7958     at=   2.0085n
             from=   1.8000n    to=   3.5000n

          ***** job concluded
 ******
 hold_sweep

 ****** transient analysis tnom=  25.000 temp=  25.000 ******
  *** parameter t_hold =   167.0000p       ***
  
 q_min=   1.7958     at=   2.0085n
             from=   1.8000n    to=   3.5000n

          ***** job concluded
 ******
 hold_sweep

 ****** transient analysis tnom=  25.000 temp=  25.000 ******
  *** parameter t_hold =   168.0000p       ***
  
 q_min=   1.7958     at=   2.0085n
             from=   1.8000n    to=   3.5000n

          ***** job concluded
 ******
 hold_sweep

 ****** transient analysis tnom=  25.000 temp=  25.000 ******
  *** parameter t_hold =   169.0000p       ***
  
 q_min=   1.7958     at=   2.0085n
             from=   1.8000n    to=   3.5000n

          ***** job concluded
 ******
 hold_sweep

 ****** transient analysis tnom=  25.000 temp=  25.000 ******
  *** parameter t_hold =   170.0000p       ***
  
 q_min=   1.7958     at=   2.0085n
             from=   1.8000n    to=   3.5000n

          ***** job concluded
 ******
 hold_sweep

 ****** transient analysis tnom=  25.000 temp=  25.000 ******
  *** parameter t_hold =   171.0000p       ***
  
 q_min=   1.7958     at=   2.0085n
             from=   1.8000n    to=   3.5000n

          ***** job concluded
 ******
 hold_sweep

 ****** transient analysis tnom=  25.000 temp=  25.000 ******
  *** parameter t_hold =   172.0000p       ***
  
 q_min=   1.7958     at=   2.0085n
             from=   1.8000n    to=   3.5000n

          ***** job concluded
 ******
 hold_sweep

 ****** transient analysis tnom=  25.000 temp=  25.000 ******
  *** parameter t_hold =   173.0000p       ***
  
 q_min=   1.7958     at=   2.0085n
             from=   1.8000n    to=   3.5000n

          ***** job concluded
 ******
 hold_sweep

 ****** transient analysis tnom=  25.000 temp=  25.000 ******
  *** parameter t_hold =   174.0000p       ***
  
 q_min=   1.7958     at=   2.0085n
             from=   1.8000n    to=   3.5000n

          ***** job concluded
 ******
 hold_sweep

 ****** transient analysis tnom=  25.000 temp=  25.000 ******
  *** parameter t_hold =   175.0000p       ***
  
 q_min=   1.7958     at=   2.0085n
             from=   1.8000n    to=   3.5000n

          ***** job concluded
 ******
 hold_sweep

 ****** transient analysis tnom=  25.000 temp=  25.000 ******
  *** parameter t_hold =   176.0000p       ***
  
 q_min=   1.7958     at=   2.0085n
             from=   1.8000n    to=   3.5000n

          ***** job concluded
 ******
 hold_sweep

 ****** transient analysis tnom=  25.000 temp=  25.000 ******
  *** parameter t_hold =   177.0000p       ***
  
 q_min=   1.7958     at=   2.0085n
             from=   1.8000n    to=   3.5000n

          ***** job concluded
 ******
 hold_sweep

 ****** transient analysis tnom=  25.000 temp=  25.000 ******
  *** parameter t_hold =   178.0000p       ***
  
 q_min=   1.7958     at=   2.0085n
             from=   1.8000n    to=   3.5000n

          ***** job concluded
 ******
 hold_sweep

 ****** transient analysis tnom=  25.000 temp=  25.000 ******
  *** parameter t_hold =   179.0000p       ***
  
 q_min=   1.7958     at=   2.0085n
             from=   1.8000n    to=   3.5000n

          ***** job concluded
 ******
 hold_sweep

 ****** transient analysis tnom=  25.000 temp=  25.000 ******
  *** parameter t_hold =   180.0000p       ***
  
 q_min=   1.7958     at=   2.0085n
             from=   1.8000n    to=   3.5000n

          ***** job concluded
 ******
 hold_sweep

 ****** transient analysis tnom=  25.000 temp=  25.000 ******
  *** parameter t_hold =   181.0000p       ***
  
 q_min=   1.7958     at=   2.0085n
             from=   1.8000n    to=   3.5000n

          ***** job concluded
 ******
 hold_sweep

 ****** transient analysis tnom=  25.000 temp=  25.000 ******
  *** parameter t_hold =   182.0000p       ***
  
 q_min=   1.7958     at=   2.0085n
             from=   1.8000n    to=   3.5000n

          ***** job concluded
 ******
 hold_sweep

 ****** transient analysis tnom=  25.000 temp=  25.000 ******
  *** parameter t_hold =   183.0000p       ***
  
 q_min=   1.7958     at=   2.0085n
             from=   1.8000n    to=   3.5000n

          ***** job concluded
 ******
 hold_sweep

 ****** transient analysis tnom=  25.000 temp=  25.000 ******
  *** parameter t_hold =   184.0000p       ***
  
 q_min=   1.7958     at=   2.0085n
             from=   1.8000n    to=   3.5000n

          ***** job concluded
 ******
 hold_sweep

 ****** transient analysis tnom=  25.000 temp=  25.000 ******
  *** parameter t_hold =   185.0000p       ***
  
 q_min=   1.7958     at=   2.0085n
             from=   1.8000n    to=   3.5000n

          ***** job concluded
 ******
 hold_sweep

 ****** transient analysis tnom=  25.000 temp=  25.000 ******
  *** parameter t_hold =   186.0000p       ***
  
 q_min=   1.7958     at=   2.0085n
             from=   1.8000n    to=   3.5000n

          ***** job concluded
 ******
 hold_sweep

 ****** transient analysis tnom=  25.000 temp=  25.000 ******
  *** parameter t_hold =   187.0000p       ***
  
 q_min=   1.7958     at=   2.0085n
             from=   1.8000n    to=   3.5000n

          ***** job concluded
 ******
 hold_sweep

 ****** transient analysis tnom=  25.000 temp=  25.000 ******
  *** parameter t_hold =   188.0000p       ***
  
 q_min=   1.7958     at=   2.0085n
             from=   1.8000n    to=   3.5000n

          ***** job concluded
 ******
 hold_sweep

 ****** transient analysis tnom=  25.000 temp=  25.000 ******
  *** parameter t_hold =   189.0000p       ***
  
 q_min=   1.7958     at=   2.2056n
             from=   1.8000n    to=   3.5000n

          ***** job concluded
 ******
 hold_sweep

 ****** transient analysis tnom=  25.000 temp=  25.000 ******
  *** parameter t_hold =   190.0000p       ***
  
 q_min=   1.7957     at=   2.2066n
             from=   1.8000n    to=   3.5000n

          ***** job concluded
 ******
 hold_sweep

 ****** transient analysis tnom=  25.000 temp=  25.000 ******
  *** parameter t_hold =   191.0000p       ***
  
 q_min=   1.7957     at=   2.2081n
             from=   1.8000n    to=   3.5000n

          ***** job concluded
 ******
 hold_sweep

 ****** transient analysis tnom=  25.000 temp=  25.000 ******
  *** parameter t_hold =   192.0000p       ***
  
 q_min=   1.7957     at=   2.2091n
             from=   1.8000n    to=   3.5000n

          ***** job concluded
 ******
 hold_sweep

 ****** transient analysis tnom=  25.000 temp=  25.000 ******
  *** parameter t_hold =   193.0000p       ***
  
 q_min=   1.7956     at=   2.2100n
             from=   1.8000n    to=   3.5000n

          ***** job concluded
 ******
 hold_sweep

 ****** transient analysis tnom=  25.000 temp=  25.000 ******
  *** parameter t_hold =   194.0000p       ***
  
 q_min=   1.7956     at=   2.2105n
             from=   1.8000n    to=   3.5000n

          ***** job concluded
 ******
 hold_sweep

 ****** transient analysis tnom=  25.000 temp=  25.000 ******
  *** parameter t_hold =   195.0000p       ***
  
 q_min=   1.7955     at=   2.2104n
             from=   1.8000n    to=   3.5000n

          ***** job concluded
 ******
 hold_sweep

 ****** transient analysis tnom=  25.000 temp=  25.000 ******
  *** parameter t_hold =   196.0000p       ***
  
 q_min=   1.7955     at=   2.2120n
             from=   1.8000n    to=   3.5000n

          ***** job concluded
 ******
 hold_sweep

 ****** transient analysis tnom=  25.000 temp=  25.000 ******
  *** parameter t_hold =   197.0000p       ***
  
 q_min=   1.7954     at=   2.2131n
             from=   1.8000n    to=   3.5000n

          ***** job concluded
 ******
 hold_sweep

 ****** transient analysis tnom=  25.000 temp=  25.000 ******
  *** parameter t_hold =   198.0000p       ***
  
 q_min=   1.7954     at=   2.2143n
             from=   1.8000n    to=   3.5000n

          ***** job concluded
 ******
 hold_sweep

 ****** transient analysis tnom=  25.000 temp=  25.000 ******
  *** parameter t_hold =   199.0000p       ***
  
 q_min=   1.7954     at=   2.2156n
             from=   1.8000n    to=   3.5000n

          ***** job concluded
 ******
 hold_sweep

 ****** transient analysis tnom=  25.000 temp=  25.000 ******
  *** parameter t_hold =   200.0000p       ***
  
 q_min=   1.7953     at=   2.2166n
             from=   1.8000n    to=   3.5000n

          ***** job concluded
 ******  
 hold_sweep

 ****** job statistics summary tnom=  25.000 temp=  25.000 ******

  ******  Circuit Statistics  ******
  # nodes       =      50 # elements   =      22
  # resistors   =       0 # capacitors =       0 # inductors   =       0
  # mutual_inds =       0 # vccs       =       0 # vcvs        =       0
  # cccs        =       0 # ccvs       =       0 # volt_srcs   =       4
  # curr_srcs   =       0 # diodes     =       0 # bjts        =       0
  # jfets       =       0 # mosfets    =      18 # U elements  =       0
  # T elements  =       0 # W elements =       0 # B elements  =       0
  # S elements  =       0 # P elements =       0 # va device   =       0
  # vector_srcs =       0 # N elements =       0


  ******  Runtime Statistics (seconds)  ******

  analysis           time    # points   tot. iter  conv.iter
  op point           0.00           1           0
  transient         11.56        4001      818647      277896 rev=     33145
  readin             0.01
  errchk             0.00
  setup              0.00
  output             0.01


           peak memory used         73.07 megabytes
           total cpu time           11.79 seconds
           total elapsed time       11.81 seconds
           job started at     03:58:32 07/10/2026
           job ended   at     03:58:52 07/10/2026
           job total runtime        20.30 seconds


  lic: Release hspice token(s) 
 lic: total license checkout elapse time:        0.02(s)
