$DATA1 SOURCE='HSPICE' VERSION='P-2019.06-SP1-1 win64' PARAM_COUNT=1
.TITLE 'hold_sweep'
 t_hold           q_min            temper           alter#          
  2.000e-10       -3.680e-05         25.0000        4               
  1.990e-10       -2.432e-05         25.0000        4               
  1.980e-10       -3.829e-05         25.0000        4               
  1.970e-10       -3.746e-05         25.0000        4               
  1.960e-10       -2.950e-05         25.0000        4               
  1.950e-10       -3.921e-05         25.0000        4               
  1.940e-10       -3.764e-05         25.0000        4               
  1.930e-10       -3.389e-05         25.0000        4               
  1.920e-10       -4.024e-05         25.0000        4               
  1.910e-10       -2.496e-05         25.0000        4               
  1.900e-10       -3.042e-05         25.0000        4               
  1.890e-10       -3.074e-05         25.0000        4               
  1.880e-10       -4.036e-05         25.0000        4               
  1.870e-10       -4.023e-05         25.0000        4               
  1.860e-10       -4.280e-05         25.0000        4               
  1.850e-10       -3.890e-05         25.0000        4               
  1.840e-10       -3.553e-05         25.0000        4               
  1.830e-10       -2.645e-05         25.0000        4               
  1.820e-10       -3.896e-05         25.0000        4               
  1.810e-10       -3.323e-05         25.0000        4               
  1.800e-10       -3.736e-05         25.0000        4               
  1.790e-10       -3.562e-05         25.0000        4               
  1.780e-10       -4.230e-05         25.0000        4               
  1.770e-10       -3.953e-05         25.0000        4               
  1.760e-10       -3.176e-05         25.0000        4               
  1.750e-10       -3.575e-05         25.0000        4               
  1.740e-10       -2.460e-05         25.0000        4               
  1.730e-10       -4.194e-05         25.0000        4               
  1.720e-10       -2.553e-05         25.0000        4               
  1.710e-10       -3.294e-05         25.0000        4               
  1.700e-10       -3.407e-05         25.0000        4               
  1.690e-10       -3.211e-05         25.0000        4               
  1.680e-10       -2.682e-05         25.0000        4               
  1.670e-10       -3.289e-05         25.0000        4               
  1.660e-10       -3.994e-05         25.0000        4               
  1.650e-10       -4.144e-05         25.0000        4               
  1.640e-10       -2.464e-05         25.0000        4               
  1.630e-10       -2.309e-05         25.0000        4               
  1.620e-10       -3.867e-05         25.0000        4               
  1.610e-10       -4.227e-05         25.0000        4               
  1.600e-10       -2.763e-05         25.0000        4               
  1.590e-10       -3.699e-05         25.0000        4               
  1.580e-10       -3.823e-05         25.0000        4               
  1.570e-10       -3.792e-05         25.0000        4               
  1.560e-10       -3.041e-05         25.0000        4               
  1.550e-10       -3.199e-05         25.0000        4               
  1.540e-10       -4.061e-05         25.0000        4               
  1.530e-10       -2.718e-05         25.0000        4               
  1.520e-10       -3.917e-05         25.0000        4               
  1.510e-10       -3.245e-05         25.0000        4               
  1.500e-10       -2.614e-05         25.0000        4               
  1.490e-10       -2.899e-05         25.0000        4               
  1.480e-10       -2.437e-05         25.0000        4               
  1.470e-10       -1.959e-05         25.0000        4               
  1.460e-10       -2.083e-05         25.0000        4               
  1.450e-10       -2.127e-05         25.0000        4               
  1.440e-10       -2.482e-05         25.0000        4               
  1.430e-10       -2.296e-05         25.0000        4               
  1.420e-10       -4.304e-05         25.0000        4               
  1.410e-10       -2.417e-05         25.0000        4               
  1.400e-10       -3.127e-05         25.0000        4               
  1.390e-10       -3.799e-05         25.0000        4               
  1.380e-10       -3.213e-05         25.0000        4               
  1.370e-10       -2.994e-05         25.0000        4               
  1.360e-10       -4.114e-05         25.0000        4               
  1.350e-10       -4.130e-05         25.0000        4               
  1.340e-10       -3.302e-05         25.0000        4               
  1.330e-10       -4.370e-05         25.0000        4               
  1.320e-10       -3.147e-05         25.0000        4               
  1.310e-10       -3.403e-05         25.0000        4               
  1.300e-10       -3.778e-05         25.0000        4               
  1.290e-10       -2.181e-05         25.0000        4               
  1.280e-10       -3.366e-05         25.0000        4               
  1.270e-10       -3.396e-05         25.0000        4               
  1.260e-10       -2.655e-05         25.0000        4               
  1.250e-10       -3.118e-05         25.0000        4               
  1.240e-10       -3.682e-05         25.0000        4               
  1.230e-10       -3.424e-05         25.0000        4               
  1.220e-10       -3.015e-05         25.0000        4               
  1.210e-10       -3.272e-05         25.0000        4               
  1.200e-10       -4.205e-05         25.0000        4               
  1.190e-10       -2.347e-05         25.0000        4               
  1.180e-10       -2.794e-05         25.0000        4               
  1.170e-10       -4.092e-05         25.0000        4               
  1.160e-10       -2.031e-05         25.0000        4               
  1.150e-10       -2.697e-05         25.0000        4               
  1.140e-10       -3.703e-05         25.0000        4               
  1.130e-10       -2.794e-05         25.0000        4               
  1.120e-10       -3.803e-05         25.0000        4               
  1.110e-10       -4.097e-05         25.0000        4               
  1.100e-10       -4.238e-05         25.0000        4               
  1.090e-10       -3.766e-05         25.0000        4               
  1.080e-10       -2.538e-05         25.0000        4               
  1.070e-10       -3.496e-05         25.0000        4               
  1.060e-10       -2.971e-05         25.0000        4               
  1.050e-10       -2.803e-05         25.0000        4               
  1.040e-10       -2.789e-05         25.0000        4               
  1.030e-10       -4.163e-05         25.0000        4               
  1.020e-10       -1.998e-05         25.0000        4               
  1.010e-10       -2.630e-05         25.0000        4               
  1.000e-10       -3.443e-05         25.0000        4               
  9.900e-11       -3.561e-05         25.0000        4               
  9.800e-11       -3.540e-05         25.0000        4               
  9.700e-11       -2.963e-05         25.0000        4               
  9.600e-11       -2.988e-05         25.0000        4               
  9.500e-11       -2.436e-05         25.0000        4               
  9.400e-11       -2.843e-05         25.0000        4               
  9.300e-11       -3.367e-05         25.0000        4               
  9.200e-11       -2.640e-05         25.0000        4               
  9.100e-11       -3.847e-05         25.0000        4               
  9.000e-11       -3.495e-05         25.0000        4               
  8.900e-11       -3.527e-05         25.0000        4               
  8.800e-11       -2.338e-05         25.0000        4               
  8.700e-11       -3.396e-05         25.0000        4               
  8.600e-11       -4.031e-05         25.0000        4               
  8.500e-11       -2.590e-05         25.0000        4               
  8.400e-11       -3.970e-05         25.0000        4               
  8.300e-11       -1.896e-05         25.0000        4               
  8.200e-11       -1.711e-05         25.0000        4               
  8.100e-11       -3.341e-05         25.0000        4               
  8.000e-11       -1.940e-05         25.0000        4               
  7.900e-11       -2.124e-05         25.0000        4               
  7.800e-11       -2.357e-05         25.0000        4               
  7.700e-11       -3.508e-05         25.0000        4               
  7.600e-11       -2.151e-05         25.0000        4               
  7.500e-11       -3.421e-05         25.0000        4               
  7.400e-11       -3.629e-05         25.0000        4               
  7.300e-11       -4.264e-05         25.0000        4               
  7.200e-11       -3.091e-05         25.0000        4               
  7.100e-11       -2.052e-05         25.0000        4               
  7.000e-11       -2.564e-05         25.0000        4               
  6.900e-11       -3.875e-05         25.0000        4               
  6.800e-11       -3.103e-05         25.0000        4               
  6.700e-11       -2.355e-05         25.0000        4               
  6.600e-11       -2.255e-05         25.0000        4               
  6.500e-11       -3.869e-05         25.0000        4               
  6.400e-11       -3.397e-05         25.0000        4               
  6.300e-11       -4.002e-05         25.0000        4               
  6.200e-11       -4.093e-05         25.0000        4               
  6.100e-11       -2.376e-05         25.0000        4               
  6.000e-11       -4.092e-05         25.0000        4               
  5.900e-11       -3.314e-05         25.0000        4               
  5.800e-11       -3.507e-05         25.0000        4               
  5.700e-11       -2.683e-05         25.0000        4               
  5.600e-11       -4.156e-05         25.0000        4               
  5.500e-11       -3.961e-05         25.0000        4               
  5.400e-11       -3.801e-05         25.0000        4               
  5.300e-11       -3.916e-05         25.0000        4               
  5.200e-11       -2.401e-05         25.0000        4               
  5.100e-11       -4.209e-05         25.0000        4               
  5.000e-11       -3.940e-05         25.0000        4               
  4.900e-11       -4.012e-05         25.0000        4               
  4.800e-11       -4.057e-05         25.0000        4               
  4.700e-11       -2.852e-05         25.0000        4               
  4.600e-11       -2.101e-05         25.0000        4               
  4.500e-11       -2.862e-05         25.0000        4               
  4.400e-11       -3.726e-05         25.0000        4               
  4.300e-11       -4.159e-05         25.0000        4               
  4.200e-11       -2.715e-05         25.0000        4               
  4.100e-11       -3.215e-05         25.0000        4               
  4.000e-11       -3.767e-05         25.0000        4               
  3.900e-11       -1.874e-05         25.0000        4               
  3.800e-11       -2.685e-05         25.0000        4               
  3.700e-11       -1.918e-05         25.0000        4               
  3.600e-11       -1.839e-05         25.0000        4               
  3.500e-11       -4.106e-05         25.0000        4               
  3.400e-11       -1.854e-05         25.0000        4               
  3.300e-11       -1.971e-05         25.0000        4               
  3.200e-11       -1.728e-05         25.0000        4               
  3.100e-11       -2.236e-05         25.0000        4               
  3.000e-11       -3.757e-05         25.0000        4               
  2.900e-11       -3.902e-05         25.0000        4               
  2.800e-11       -2.718e-05         25.0000        4               
  2.700e-11       -2.773e-05         25.0000        4               
  2.600e-11       -3.100e-05         25.0000        4               
  2.500e-11       -2.305e-05         25.0000        4               
  2.400e-11       -2.799e-05         25.0000        4               
  2.300e-11       -3.666e-05         25.0000        4               
  2.200e-11       -2.168e-05         25.0000        4               
  2.100e-11       -4.094e-05         25.0000        4               
  2.000e-11       -3.705e-05         25.0000        4               
  1.900e-11       -2.536e-05         25.0000        4               
  1.800e-11       -3.980e-05         25.0000        4               
  1.700e-11       -1.854e-05         25.0000        4               
  1.600e-11       -3.553e-05         25.0000        4               
  1.500e-11       -4.058e-05         25.0000        4               
  1.400e-11       -2.942e-05         25.0000        4               
  1.300e-11       -3.233e-05         25.0000        4               
  1.200e-11       -3.039e-05         25.0000        4               
  1.100e-11       -3.122e-05         25.0000        4               
  1.000e-11       -3.068e-05         25.0000        4               
  9.000e-12       -2.906e-05         25.0000        4               
  8.000e-12       -4.199e-05         25.0000        4               
  7.000e-12       -4.165e-05         25.0000        4               
  6.000e-12       -1.724e-05         25.0000        4               
  5.000e-12       -3.455e-05         25.0000        4               
  4.000e-12       -2.701e-05         25.0000        4               
  3.000e-12       -2.047e-05         25.0000        4               
  2.000e-12       -2.360e-05         25.0000        4               
  1.000e-12       -3.782e-05         25.0000        4               
    0.            -3.570e-05         25.0000        4               
 -1.000e-12       -2.531e-05         25.0000        4               
 -2.000e-12       -2.147e-05         25.0000        4               
 -3.000e-12       -2.969e-05         25.0000        4               
 -4.000e-12       -3.920e-05         25.0000        4               
 -5.000e-12       -3.218e-05         25.0000        4               
 -6.000e-12       -1.932e-05         25.0000        4               
 -7.000e-12       -3.971e-05         25.0000        4               
 -8.000e-12       -3.677e-05         25.0000        4               
 -9.000e-12       -3.391e-05         25.0000        4               
 -1.000e-11       -3.560e-05         25.0000        4               
 -1.100e-11       -3.601e-05         25.0000        4               
 -1.200e-11       -3.303e-05         25.0000        4               
 -1.300e-11       -3.980e-05         25.0000        4               
 -1.400e-11       -3.897e-05         25.0000        4               
 -1.500e-11       -2.924e-05         25.0000        4               
 -1.600e-11       -3.075e-05         25.0000        4               
 -1.700e-11       -4.059e-05         25.0000        4               
 -1.800e-11       -3.621e-05         25.0000        4               
 -1.900e-11       -4.057e-05         25.0000        4               
 -2.000e-11       -2.905e-05         25.0000        4               
 -2.100e-11       -3.737e-05         25.0000        4               
 -2.200e-11       -3.872e-05         25.0000        4               
 -2.300e-11       -2.409e-05         25.0000        4               
 -2.400e-11       -2.970e-05         25.0000        4               
 -2.500e-11       -3.578e-05         25.0000        4               
 -2.600e-11       -2.765e-05         25.0000        4               
 -2.700e-11       -3.588e-05         25.0000        4               
 -2.800e-11       -3.576e-05         25.0000        4               
 -2.900e-11       -1.511e-05         25.0000        4               
 -3.000e-11       -3.050e-05         25.0000        4               
 -2.900e-11       -1.511e-05         25.0000        4               
 -2.800e-11       -3.576e-05         25.0000        4               
 -2.700e-11       -3.588e-05         25.0000        4               
 -2.600e-11       -2.765e-05         25.0000        4               
 -2.500e-11       -3.578e-05         25.0000        4               
 -2.400e-11       -2.970e-05         25.0000        4               
 -2.300e-11       -2.409e-05         25.0000        4               
 -2.200e-11       -3.872e-05         25.0000        4               
 -2.100e-11       -3.737e-05         25.0000        4               
 -2.000e-11       -2.905e-05         25.0000        4               
 -1.900e-11       -4.057e-05         25.0000        4               
 -1.800e-11       -3.621e-05         25.0000        4               
 -1.700e-11       -4.059e-05         25.0000        4               
 -1.600e-11       -3.075e-05         25.0000        4               
 -1.500e-11       -2.924e-05         25.0000        4               
 -1.400e-11       -3.897e-05         25.0000        4               
 -1.300e-11       -3.980e-05         25.0000        4               
 -1.200e-11       -3.303e-05         25.0000        4               
 -1.100e-11       -3.601e-05         25.0000        4               
 -1.000e-11       -3.560e-05         25.0000        4               
 -9.000e-12       -3.391e-05         25.0000        4               
 -8.000e-12       -3.677e-05         25.0000        4               
 -7.000e-12       -3.971e-05         25.0000        4               
 -6.000e-12       -1.932e-05         25.0000        4               
 -5.000e-12       -3.218e-05         25.0000        4               
 -4.000e-12       -3.920e-05         25.0000        4               
 -3.000e-12       -2.969e-05         25.0000        4               
 -2.000e-12       -2.147e-05         25.0000        4               
 -1.000e-12       -2.531e-05         25.0000        4               
    0.            -3.570e-05         25.0000        4               
  1.000e-12       -3.782e-05         25.0000        4               
  2.000e-12       -2.360e-05         25.0000        4               
  3.000e-12       -2.047e-05         25.0000        4               
  4.000e-12       -2.701e-05         25.0000        4               
  5.000e-12       -3.455e-05         25.0000        4               
  6.000e-12       -1.724e-05         25.0000        4               
  7.000e-12       -4.165e-05         25.0000        4               
  8.000e-12       -4.199e-05         25.0000        4               
  9.000e-12       -2.906e-05         25.0000        4               
  1.000e-11       -3.068e-05         25.0000        4               
  1.100e-11       -3.122e-05         25.0000        4               
  1.200e-11       -3.039e-05         25.0000        4               
  1.300e-11       -3.233e-05         25.0000        4               
  1.400e-11       -2.942e-05         25.0000        4               
  1.500e-11       -4.058e-05         25.0000        4               
  1.600e-11       -3.553e-05         25.0000        4               
  1.700e-11       -1.854e-05         25.0000        4               
  1.800e-11       -3.980e-05         25.0000        4               
  1.900e-11       -2.536e-05         25.0000        4               
  2.000e-11       -3.705e-05         25.0000        4               
  2.100e-11       -4.094e-05         25.0000        4               
  2.200e-11       -2.168e-05         25.0000        4               
  2.300e-11       -3.666e-05         25.0000        4               
  2.400e-11       -2.799e-05         25.0000        4               
  2.500e-11       -2.305e-05         25.0000        4               
  2.600e-11       -3.100e-05         25.0000        4               
  2.700e-11       -2.773e-05         25.0000        4               
  2.800e-11       -2.718e-05         25.0000        4               
  2.900e-11       -3.902e-05         25.0000        4               
  3.000e-11       -3.757e-05         25.0000        4               
  3.100e-11       -2.236e-05         25.0000        4               
  3.200e-11       -1.728e-05         25.0000        4               
  3.300e-11       -1.971e-05         25.0000        4               
  3.400e-11       -1.854e-05         25.0000        4               
  3.500e-11       -4.106e-05         25.0000        4               
  3.600e-11       -1.839e-05         25.0000        4               
  3.700e-11       -1.918e-05         25.0000        4               
  3.800e-11       -2.685e-05         25.0000        4               
  3.900e-11       -1.874e-05         25.0000        4               
  4.000e-11       -3.767e-05         25.0000        4               
  4.100e-11       -3.215e-05         25.0000        4               
  4.200e-11       -2.715e-05         25.0000        4               
  4.300e-11       -4.159e-05         25.0000        4               
  4.400e-11       -3.726e-05         25.0000        4               
  4.500e-11       -2.862e-05         25.0000        4               
  4.600e-11       -2.101e-05         25.0000        4               
  4.700e-11       -2.852e-05         25.0000        4               
  4.800e-11       -4.057e-05         25.0000        4               
  4.900e-11       -4.012e-05         25.0000        4               
  5.000e-11       -3.940e-05         25.0000        4               
  5.100e-11       -4.209e-05         25.0000        4               
  5.200e-11       -2.401e-05         25.0000        4               
  5.300e-11       -3.916e-05         25.0000        4               
  5.400e-11       -3.801e-05         25.0000        4               
  5.500e-11       -3.961e-05         25.0000        4               
  5.600e-11       -4.156e-05         25.0000        4               
  5.700e-11       -2.683e-05         25.0000        4               
  5.800e-11       -3.507e-05         25.0000        4               
  5.900e-11       -3.314e-05         25.0000        4               
  6.000e-11       -4.092e-05         25.0000        4               
  6.100e-11       -2.376e-05         25.0000        4               
  6.200e-11       -4.093e-05         25.0000        4               
  6.300e-11       -4.002e-05         25.0000        4               
  6.400e-11       -3.397e-05         25.0000        4               
  6.500e-11       -3.869e-05         25.0000        4               
  6.600e-11       -2.255e-05         25.0000        4               
  6.700e-11       -2.355e-05         25.0000        4               
  6.800e-11       -3.103e-05         25.0000        4               
  6.900e-11       -3.875e-05         25.0000        4               
  7.000e-11       -2.564e-05         25.0000        4               
  7.100e-11       -2.052e-05         25.0000        4               
  7.200e-11       -3.091e-05         25.0000        4               
  7.300e-11       -4.264e-05         25.0000        4               
  7.400e-11       -3.629e-05         25.0000        4               
  7.500e-11       -3.421e-05         25.0000        4               
  7.600e-11       -2.151e-05         25.0000        4               
  7.700e-11       -3.508e-05         25.0000        4               
  7.800e-11       -2.357e-05         25.0000        4               
  7.900e-11       -2.124e-05         25.0000        4               
  8.000e-11       -1.940e-05         25.0000        4               
  8.100e-11       -3.341e-05         25.0000        4               
  8.200e-11       -1.711e-05         25.0000        4               
  8.300e-11       -1.896e-05         25.0000        4               
  8.400e-11       -3.970e-05         25.0000        4               
  8.500e-11       -2.590e-05         25.0000        4               
  8.600e-11       -4.031e-05         25.0000        4               
  8.700e-11       -3.396e-05         25.0000        4               
  8.800e-11       -2.338e-05         25.0000        4               
  8.900e-11       -3.527e-05         25.0000        4               
  9.000e-11       -3.495e-05         25.0000        4               
  9.100e-11       -3.847e-05         25.0000        4               
  9.200e-11       -2.640e-05         25.0000        4               
  9.300e-11       -3.367e-05         25.0000        4               
  9.400e-11       -2.843e-05         25.0000        4               
  9.500e-11       -2.436e-05         25.0000        4               
  9.600e-11       -2.988e-05         25.0000        4               
  9.700e-11       -2.963e-05         25.0000        4               
  9.800e-11       -3.540e-05         25.0000        4               
  9.900e-11       -3.561e-05         25.0000        4               
  1.000e-10       -3.443e-05         25.0000        4               
  1.010e-10       -2.630e-05         25.0000        4               
  1.020e-10       -1.998e-05         25.0000        4               
  1.030e-10       -4.163e-05         25.0000        4               
  1.040e-10       -2.789e-05         25.0000        4               
  1.050e-10       -2.803e-05         25.0000        4               
  1.060e-10       -2.971e-05         25.0000        4               
  1.070e-10       -3.496e-05         25.0000        4               
  1.080e-10       -2.538e-05         25.0000        4               
  1.090e-10       -3.766e-05         25.0000        4               
  1.100e-10       -4.238e-05         25.0000        4               
  1.110e-10       -4.097e-05         25.0000        4               
  1.120e-10       -3.803e-05         25.0000        4               
  1.130e-10       -2.794e-05         25.0000        4               
  1.140e-10       -3.703e-05         25.0000        4               
  1.150e-10       -2.697e-05         25.0000        4               
  1.160e-10       -2.031e-05         25.0000        4               
  1.170e-10       -4.092e-05         25.0000        4               
  1.180e-10       -2.794e-05         25.0000        4               
  1.190e-10       -2.347e-05         25.0000        4               
  1.200e-10       -4.205e-05         25.0000        4               
  1.210e-10       -3.272e-05         25.0000        4               
  1.220e-10       -3.015e-05         25.0000        4               
  1.230e-10       -3.424e-05         25.0000        4               
  1.240e-10       -3.682e-05         25.0000        4               
  1.250e-10       -3.118e-05         25.0000        4               
  1.260e-10       -2.655e-05         25.0000        4               
  1.270e-10       -3.396e-05         25.0000        4               
  1.280e-10       -3.366e-05         25.0000        4               
  1.290e-10       -2.181e-05         25.0000        4               
  1.300e-10       -3.778e-05         25.0000        4               
  1.310e-10       -3.403e-05         25.0000        4               
  1.320e-10       -3.147e-05         25.0000        4               
  1.330e-10       -4.370e-05         25.0000        4               
  1.340e-10       -3.302e-05         25.0000        4               
  1.350e-10       -4.130e-05         25.0000        4               
  1.360e-10       -4.114e-05         25.0000        4               
  1.370e-10       -2.994e-05         25.0000        4               
  1.380e-10       -3.213e-05         25.0000        4               
  1.390e-10       -3.799e-05         25.0000        4               
  1.400e-10       -3.127e-05         25.0000        4               
  1.410e-10       -2.417e-05         25.0000        4               
  1.420e-10       -4.304e-05         25.0000        4               
  1.430e-10       -2.296e-05         25.0000        4               
  1.440e-10       -2.482e-05         25.0000        4               
  1.450e-10       -2.127e-05         25.0000        4               
  1.460e-10       -2.083e-05         25.0000        4               
  1.470e-10       -1.959e-05         25.0000        4               
  1.480e-10       -2.437e-05         25.0000        4               
  1.490e-10       -2.899e-05         25.0000        4               
  1.500e-10       -2.614e-05         25.0000        4               
  1.510e-10       -3.245e-05         25.0000        4               
  1.520e-10       -3.917e-05         25.0000        4               
  1.530e-10       -2.718e-05         25.0000        4               
  1.540e-10       -4.061e-05         25.0000        4               
  1.550e-10       -3.199e-05         25.0000        4               
  1.560e-10       -3.041e-05         25.0000        4               
  1.570e-10       -3.792e-05         25.0000        4               
  1.580e-10       -3.823e-05         25.0000        4               
  1.590e-10       -3.699e-05         25.0000        4               
  1.600e-10       -2.763e-05         25.0000        4               
  1.610e-10       -4.227e-05         25.0000        4               
  1.620e-10       -3.867e-05         25.0000        4               
  1.630e-10       -2.309e-05         25.0000        4               
  1.640e-10       -2.464e-05         25.0000        4               
  1.650e-10       -4.144e-05         25.0000        4               
  1.660e-10       -3.994e-05         25.0000        4               
  1.670e-10       -3.289e-05         25.0000        4               
  1.680e-10       -2.682e-05         25.0000        4               
  1.690e-10       -3.211e-05         25.0000        4               
  1.700e-10       -3.407e-05         25.0000        4               
  1.710e-10       -3.294e-05         25.0000        4               
  1.720e-10       -2.553e-05         25.0000        4               
  1.730e-10       -4.194e-05         25.0000        4               
  1.740e-10       -2.460e-05         25.0000        4               
  1.750e-10       -3.575e-05         25.0000        4               
  1.760e-10       -3.176e-05         25.0000        4               
  1.770e-10       -3.953e-05         25.0000        4               
  1.780e-10       -4.230e-05         25.0000        4               
  1.790e-10       -3.562e-05         25.0000        4               
  1.800e-10       -3.736e-05         25.0000        4               
  1.810e-10       -3.323e-05         25.0000        4               
  1.820e-10       -3.896e-05         25.0000        4               
  1.830e-10       -2.645e-05         25.0000        4               
  1.840e-10       -3.553e-05         25.0000        4               
  1.850e-10       -3.890e-05         25.0000        4               
  1.860e-10       -4.280e-05         25.0000        4               
  1.870e-10       -4.023e-05         25.0000        4               
  1.880e-10       -4.036e-05         25.0000        4               
  1.890e-10       -3.074e-05         25.0000        4               
  1.900e-10       -3.042e-05         25.0000        4               
  1.910e-10       -2.496e-05         25.0000        4               
  1.920e-10       -4.024e-05         25.0000        4               
  1.930e-10       -3.389e-05         25.0000        4               
  1.940e-10       -3.764e-05         25.0000        4               
  1.950e-10       -3.921e-05         25.0000        4               
  1.960e-10       -2.950e-05         25.0000        4               
  1.970e-10       -3.746e-05         25.0000        4               
  1.980e-10       -3.829e-05         25.0000        4               
  1.990e-10       -2.432e-05         25.0000        4               
  2.000e-10       -3.680e-05         25.0000        4               
