 ****** HSPICE -- P-2019.06-SP1-1 win64 (Sep 27 2019) ******                    
  Copyright (c) 1986 - 2026 by Synopsys, Inc. All Rights Reserved.              
  This software and the associated documentation are proprietary
  to Synopsys, Inc. This software may only be used in accordance
  with the terms and conditions of a written license agreement with
  Synopsys, Inc. All other use, reproduction, or distribution of
  this software is strictly prohibited.
  Input File: sim.sp                                                            
  Command line options: C:\synopsys\Hspice_P-2019.06-SP1-1\WIN64\hspice.com -i sim.sp -o D:\UT.CE\Term-06\AVLSI\CA\CA04\simulation\seq-elements\D-Latch\delay\sim.lis
  Start time: Fri Jul 10 02:52:32 2026
  lic:  
  lic: FLEXlm: SDK_12.3 
  lic: USER:   Mohammad-Khohsroo    HOSTNAME: DESKTOP-GMQQFUO 
  lic: HOSTID: "088fc3e7a24d"       PID:      24124 
  lic: Using FLEXlm license file: 
  lic: 27000@DESKTOP-GMQQFUO 
  lic: Checkout 1 hspice 
  lic: License/Maintenance for hspice will expire on 30-dec-2030/2020.12 
  lic: 1(in_use)/99(total) FLOATING license(s) on SERVER 27000@DESKTOP-GMQQFUO 
  lic:   
1****** HSPICE -- P-2019.06-SP1-1 win64 (Sep 27 2019) ******                    
 ******  
 ********************* hspice fa gates modeling **********************

 ****** circuit name directory
 circuit number to circuit name directory
   number circuitname                     definition         multiplier
        0 main circuit
        1 xcircuit.                       d_latch_nn         1.00 
        2 xcircuit.xinv_d.                inv                1.00 
        3 xcircuit.xnand1.                nand2              1.00 
        4 xcircuit.xnand2.                nand2              1.00 
        5 xcircuit.xnand3.                nand2              1.00 
        6 xcircuit.xnand4.                nand2              1.00 
 

  
             
 Warning:'No DC path nodes' occurs 2 times
 No DC path from the following nodes,connected with gdcpath:
 -----------------------
 |Node      |Subckt    |
 |----------+----------|
 |d         |0         |
 |e         |0         |
 -----------------------
              
      
 **info** set option symb=1 internally to help for convergence.
 *****************************************************************
 ******  option summary
 ******
 runlvl  = 6         bypass  = 2.0000    
  Opening plot unit= 79
 file=D:\UT.CE\Term-06\AVLSI\CA\CA04\simulation\seq-elements\D-Latch\delay\sim.pa0


          ***** job concluded
 ******  
 ********************* hspice fa gates modeling **********************

 ****** job statistics summary tnom=  25.000 temp=  25.000 ******

  ******  HSPICE Threads Information  ******

  Command Line Threads Count :     1
  Available CPU Count        :    16
  Actual Threads Count       :     1


  ******  Circuit Statistics  ******
  # nodes       =      50 # elements   =      20
  # resistors   =       0 # capacitors =       0 # inductors   =       0
  # mutual_inds =       0 # vccs       =       0 # vcvs        =       0
  # cccs        =       0 # ccvs       =       0 # volt_srcs   =       2
  # curr_srcs   =       0 # diodes     =       0 # bjts        =       0
  # jfets       =       0 # mosfets    =      18 # U elements  =       0
  # T elements  =       0 # W elements =       0 # B elements  =       0
  # S elements  =       0 # P elements =       0 # va device   =       0
  # vector_srcs =       0 # N elements =       0


  ******  Runtime Statistics (seconds)  ******

  analysis           time    # points   tot. iter  conv.iter
  op point           0.00           1           0
  readin             0.05
  errchk             0.00
  setup              0.00
  output             0.00


           peak memory used         65.87 megabytes
           total cpu time            0.05 seconds
           total elapsed time        0.07 seconds
           job started at     02:52:32 07/10/2026
           job ended   at     02:52:32 07/10/2026
 ******  
 tdq_tcq_measure

 ****** circuit name directory
 circuit number to circuit name directory
   number circuitname                     definition         multiplier
        0 main circuit
        1 xcircuit.                       d_latch_nn         1.00 
        2 xcircuit.xinv_d.                inv                1.00 
        3 xcircuit.xnand1.                nand2              1.00 
        4 xcircuit.xnand2.                nand2              1.00 
        5 xcircuit.xnand3.                nand2              1.00 
        6 xcircuit.xnand4.                nand2              1.00 
  **info** (sim.sp:40) DC voltage reset to initial transient source value in source 0:vd. new dc=0.0000D+00
  
      
 **info** set option symb=1 internally to help for convergence.
 *****************************************************************
 ******  option summary
 ******
 runlvl  = 6         bypass  = 2.0000    
  Opening plot unit= 79
 file=D:\UT.CE\Term-06\AVLSI\CA\CA04\simulation\seq-elements\D-Latch\delay\sim.pa1

 ******
 tdq_tcq_measure

 ****** transient analysis tnom=  25.000 temp=  25.000 ******
 t_eq=  72.5491p  targ=   1.5725n   trig=   1.5000n
 t_dq= 481.0595p  targ=   3.0811n   trig=   2.6000n

          ***** job concluded
 ******  
 tdq_tcq_measure

 ****** job statistics summary tnom=  25.000 temp=  25.000 ******

  ******  Circuit Statistics  ******
  # nodes       =      50 # elements   =      22
  # resistors   =       0 # capacitors =       0 # inductors   =       0
  # mutual_inds =       0 # vccs       =       0 # vcvs        =       0
  # cccs        =       0 # ccvs       =       0 # volt_srcs   =       4
  # curr_srcs   =       0 # diodes     =       0 # bjts        =       0
  # jfets       =       0 # mosfets    =      18 # U elements  =       0
  # T elements  =       0 # W elements =       0 # B elements  =       0
  # S elements  =       0 # P elements =       0 # va device   =       0
  # vector_srcs =       0 # N elements =       0


  ******  Runtime Statistics (seconds)  ******

  analysis           time    # points   tot. iter  conv.iter
  op point           0.00           1           0
  transient          0.02        4001        1076         372 rev=        52
  readin             0.01
  errchk             0.00
  setup              0.00
  output             0.00


           peak memory used         66.47 megabytes
           total cpu time            0.03 seconds
           total elapsed time        0.04 seconds
           job started at     02:52:32 07/10/2026
           job ended   at     02:52:32 07/10/2026
 ******  
 setup_sweep

 ****** circuit name directory
 circuit number to circuit name directory
   number circuitname                     definition         multiplier
        0 main circuit
        1 xcircuit.                       d_latch_nn         1.00 
        2 xcircuit.xinv_d.                inv                1.00 
        3 xcircuit.xnand1.                nand2              1.00 
        4 xcircuit.xnand2.                nand2              1.00 
        5 xcircuit.xnand3.                nand2              1.00 
        6 xcircuit.xnand4.                nand2              1.00 
  **info** (sim.sp:56) DC voltage reset to initial transient source value in source 0:vd. new dc=0.0000D+00
  **warning** (sim.sp:53) Duplicate .ic/.nodeset declaration for node q. Taking the .ic value 0.00
  
      
 **info** set option symb=1 internally to help for convergence.
 *****************************************************************
 ******  option summary
 ******
 runlvl  = 6         bypass  = 2.0000    
  Opening plot unit= 79
 file=D:\UT.CE\Term-06\AVLSI\CA\CA04\simulation\seq-elements\D-Latch\delay\sim.pa2

 ******
 setup_sweep

 ****** transient analysis tnom=  25.000 temp=  25.000 ******
 t_eq= 288.3757p  targ=   1.7884n   trig=   1.5000n
  **warning** (sim.sp:44) .MEASURE t_dq never reached the target value, Measurement failed! 
   t_dq= failed       targ= not found    trig=    3.7500n
 ******
 setup_sweep

 ****** transient analysis tnom=  25.000 temp=  25.000 ******
  *** parameter t_setup =   300.0000p       ***
  
 q_max=   1.8029     at=   3.2309n
             from=   1.8000n    to=   3.5000n

          ***** job concluded
 ******
 setup_sweep

 ****** transient analysis tnom=  25.000 temp=  25.000 ******
  *** parameter t_setup =   299.0000p       ***
  
 q_max=   1.8028     at=   3.2349n
             from=   1.8000n    to=   3.5000n

          ***** job concluded
 ******
 setup_sweep

 ****** transient analysis tnom=  25.000 temp=  25.000 ******
  *** parameter t_setup =   298.0000p       ***
  
 q_max=   1.8029     at=   3.2317n
             from=   1.8000n    to=   3.5000n

          ***** job concluded
 ******
 setup_sweep

 ****** transient analysis tnom=  25.000 temp=  25.000 ******
  *** parameter t_setup =   297.0000p       ***
  
 q_max=   1.8028     at=   3.2334n
             from=   1.8000n    to=   3.5000n

          ***** job concluded
 ******
 setup_sweep

 ****** transient analysis tnom=  25.000 temp=  25.000 ******
  *** parameter t_setup =   296.0000p       ***
  
 q_max=   1.8028     at=   3.2308n
             from=   1.8000n    to=   3.5000n

          ***** job concluded
 ******
 setup_sweep

 ****** transient analysis tnom=  25.000 temp=  25.000 ******
  *** parameter t_setup =   295.0000p       ***
  
 q_max=   1.8028     at=   3.2326n
             from=   1.8000n    to=   3.5000n

          ***** job concluded
 ******
 setup_sweep

 ****** transient analysis tnom=  25.000 temp=  25.000 ******
  *** parameter t_setup =   294.0000p       ***
  
 q_max=   1.8027     at=   3.2205n
             from=   1.8000n    to=   3.5000n

          ***** job concluded
 ******
 setup_sweep

 ****** transient analysis tnom=  25.000 temp=  25.000 ******
  *** parameter t_setup =   293.0000p       ***
  
 q_max=   1.8028     at=   3.2415n
             from=   1.8000n    to=   3.5000n

          ***** job concluded
 ******
 setup_sweep

 ****** transient analysis tnom=  25.000 temp=  25.000 ******
  *** parameter t_setup =   292.0000p       ***
  
 q_max=   1.8028     at=   3.2337n
             from=   1.8000n    to=   3.5000n

          ***** job concluded
 ******
 setup_sweep

 ****** transient analysis tnom=  25.000 temp=  25.000 ******
  *** parameter t_setup =   291.0000p       ***
  
 q_max=   1.8028     at=   3.2305n
             from=   1.8000n    to=   3.5000n

          ***** job concluded
 ******
 setup_sweep

 ****** transient analysis tnom=  25.000 temp=  25.000 ******
  *** parameter t_setup =   290.0000p       ***
  
 q_max=   1.8028     at=   3.2340n
             from=   1.8000n    to=   3.5000n

          ***** job concluded
 ******
 setup_sweep

 ****** transient analysis tnom=  25.000 temp=  25.000 ******
  *** parameter t_setup =   289.0000p       ***
  
 q_max=   1.8028     at=   3.2343n
             from=   1.8000n    to=   3.5000n

          ***** job concluded
 ******
 setup_sweep

 ****** transient analysis tnom=  25.000 temp=  25.000 ******
  *** parameter t_setup =   288.0000p       ***
  
 q_max=   1.8028     at=   3.2378n
             from=   1.8000n    to=   3.5000n

          ***** job concluded
 ******
 setup_sweep

 ****** transient analysis tnom=  25.000 temp=  25.000 ******
  *** parameter t_setup =   287.0000p       ***
  
 q_max=   1.8028     at=   3.2364n
             from=   1.8000n    to=   3.5000n

          ***** job concluded
 ******
 setup_sweep

 ****** transient analysis tnom=  25.000 temp=  25.000 ******
  *** parameter t_setup =   286.0000p       ***
  
 q_max=   1.8028     at=   3.2318n
             from=   1.8000n    to=   3.5000n

          ***** job concluded
 ******
 setup_sweep

 ****** transient analysis tnom=  25.000 temp=  25.000 ******
  *** parameter t_setup =   285.0000p       ***
  
 q_max=   1.8028     at=   3.2357n
             from=   1.8000n    to=   3.5000n

          ***** job concluded
 ******
 setup_sweep

 ****** transient analysis tnom=  25.000 temp=  25.000 ******
  *** parameter t_setup =   284.0000p       ***
  
 q_max=   1.8027     at=   3.2202n
             from=   1.8000n    to=   3.5000n

          ***** job concluded
 ******
 setup_sweep

 ****** transient analysis tnom=  25.000 temp=  25.000 ******
  *** parameter t_setup =   283.0000p       ***
  
 q_max=   1.8028     at=   3.2322n
             from=   1.8000n    to=   3.5000n

          ***** job concluded
 ******
 setup_sweep

 ****** transient analysis tnom=  25.000 temp=  25.000 ******
  *** parameter t_setup =   282.0000p       ***
  
 q_max=   1.8028     at=   3.2424n
             from=   1.8000n    to=   3.5000n

          ***** job concluded
 ******
 setup_sweep

 ****** transient analysis tnom=  25.000 temp=  25.000 ******
  *** parameter t_setup =   281.0000p       ***
  
 q_max=   1.8028     at=   3.2413n
             from=   1.8000n    to=   3.5000n

          ***** job concluded
 ******
 setup_sweep

 ****** transient analysis tnom=  25.000 temp=  25.000 ******
  *** parameter t_setup =   280.0000p       ***
  
 q_max=   1.8027     at=   3.2200n
             from=   1.8000n    to=   3.5000n

          ***** job concluded
 ******
 setup_sweep

 ****** transient analysis tnom=  25.000 temp=  25.000 ******
  *** parameter t_setup =   279.0000p       ***
  
 q_max=   1.8029     at=   3.2347n
             from=   1.8000n    to=   3.5000n

          ***** job concluded
 ******
 setup_sweep

 ****** transient analysis tnom=  25.000 temp=  25.000 ******
  *** parameter t_setup =   278.0000p       ***
  
 q_max=   1.8028     at=   3.2351n
             from=   1.8000n    to=   3.5000n

          ***** job concluded
 ******
 setup_sweep

 ****** transient analysis tnom=  25.000 temp=  25.000 ******
  *** parameter t_setup =   277.0000p       ***
  
 q_max=   1.8028     at=   3.2336n
             from=   1.8000n    to=   3.5000n

          ***** job concluded
 ******
 setup_sweep

 ****** transient analysis tnom=  25.000 temp=  25.000 ******
  *** parameter t_setup =   276.0000p       ***
  
 q_max=   1.8028     at=   3.2352n
             from=   1.8000n    to=   3.5000n

          ***** job concluded
 ******
 setup_sweep

 ****** transient analysis tnom=  25.000 temp=  25.000 ******
  *** parameter t_setup =   275.0000p       ***
  
 q_max=   1.8027     at=   3.2427n
             from=   1.8000n    to=   3.5000n

          ***** job concluded
 ******
 setup_sweep

 ****** transient analysis tnom=  25.000 temp=  25.000 ******
  *** parameter t_setup =   274.0000p       ***
  
 q_max=   1.8028     at=   3.2267n
             from=   1.8000n    to=   3.5000n

          ***** job concluded
 ******
 setup_sweep

 ****** transient analysis tnom=  25.000 temp=  25.000 ******
  *** parameter t_setup =   273.0000p       ***
  
 q_max=   1.8028     at=   3.2278n
             from=   1.8000n    to=   3.5000n

          ***** job concluded
 ******
 setup_sweep

 ****** transient analysis tnom=  25.000 temp=  25.000 ******
  *** parameter t_setup =   272.0000p       ***
  
 q_max=   1.8028     at=   3.2253n
             from=   1.8000n    to=   3.5000n

          ***** job concluded
 ******
 setup_sweep

 ****** transient analysis tnom=  25.000 temp=  25.000 ******
  *** parameter t_setup =   271.0000p       ***
  
 q_max=   1.8028     at=   3.2342n
             from=   1.8000n    to=   3.5000n

          ***** job concluded
 ******
 setup_sweep

 ****** transient analysis tnom=  25.000 temp=  25.000 ******
  *** parameter t_setup =   270.0000p       ***
  
 q_max=   1.8028     at=   3.2259n
             from=   1.8000n    to=   3.5000n

          ***** job concluded
 ******
 setup_sweep

 ****** transient analysis tnom=  25.000 temp=  25.000 ******
  *** parameter t_setup =   269.0000p       ***
  
 q_max=   1.8028     at=   3.2316n
             from=   1.8000n    to=   3.5000n

          ***** job concluded
 ******
 setup_sweep

 ****** transient analysis tnom=  25.000 temp=  25.000 ******
  *** parameter t_setup =   268.0000p       ***
  
 q_max=   1.8028     at=   3.2299n
             from=   1.8000n    to=   3.5000n

          ***** job concluded
 ******
 setup_sweep

 ****** transient analysis tnom=  25.000 temp=  25.000 ******
  *** parameter t_setup =   267.0000p       ***
  
 q_max=   1.8028     at=   3.2292n
             from=   1.8000n    to=   3.5000n

          ***** job concluded
 ******
 setup_sweep

 ****** transient analysis tnom=  25.000 temp=  25.000 ******
  *** parameter t_setup =   266.0000p       ***
  
 q_max=   1.8028     at=   3.2317n
             from=   1.8000n    to=   3.5000n

          ***** job concluded
 ******
 setup_sweep

 ****** transient analysis tnom=  25.000 temp=  25.000 ******
  *** parameter t_setup =   265.0000p       ***
  
 q_max=   1.8028     at=   3.2339n
             from=   1.8000n    to=   3.5000n

          ***** job concluded
 ******
 setup_sweep

 ****** transient analysis tnom=  25.000 temp=  25.000 ******
  *** parameter t_setup =   264.0000p       ***
  
 q_max=   1.8028     at=   3.2319n
             from=   1.8000n    to=   3.5000n

          ***** job concluded
 ******
 setup_sweep

 ****** transient analysis tnom=  25.000 temp=  25.000 ******
  *** parameter t_setup =   263.0000p       ***
  
 q_max=   1.8028     at=   3.2254n
             from=   1.8000n    to=   3.5000n

          ***** job concluded
 ******
 setup_sweep

 ****** transient analysis tnom=  25.000 temp=  25.000 ******
  *** parameter t_setup =   262.0000p       ***
  
 q_max=   1.8028     at=   3.2355n
             from=   1.8000n    to=   3.5000n

          ***** job concluded
 ******
 setup_sweep

 ****** transient analysis tnom=  25.000 temp=  25.000 ******
  *** parameter t_setup =   261.0000p       ***
  
 q_max=   1.8028     at=   3.2378n
             from=   1.8000n    to=   3.5000n

          ***** job concluded
 ******
 setup_sweep

 ****** transient analysis tnom=  25.000 temp=  25.000 ******
  *** parameter t_setup =   260.0000p       ***
  
 q_max=   1.8028     at=   3.2283n
             from=   1.8000n    to=   3.5000n

          ***** job concluded
 ******
 setup_sweep

 ****** transient analysis tnom=  25.000 temp=  25.000 ******
  *** parameter t_setup =   259.0000p       ***
  
 q_max=   1.8028     at=   3.2285n
             from=   1.8000n    to=   3.5000n

          ***** job concluded
 ******
 setup_sweep

 ****** transient analysis tnom=  25.000 temp=  25.000 ******
  *** parameter t_setup =   258.0000p       ***
  
 q_max=   1.8028     at=   3.2363n
             from=   1.8000n    to=   3.5000n

          ***** job concluded
 ******
 setup_sweep

 ****** transient analysis tnom=  25.000 temp=  25.000 ******
  *** parameter t_setup =   257.0000p       ***
  
 q_max=   1.8028     at=   3.2417n
             from=   1.8000n    to=   3.5000n

          ***** job concluded
 ******
 setup_sweep

 ****** transient analysis tnom=  25.000 temp=  25.000 ******
  *** parameter t_setup =   256.0000p       ***
  
 q_max=   1.8028     at=   3.2327n
             from=   1.8000n    to=   3.5000n

          ***** job concluded
 ******
 setup_sweep

 ****** transient analysis tnom=  25.000 temp=  25.000 ******
  *** parameter t_setup =   255.0000p       ***
  
 q_max=   1.8028     at=   3.2301n
             from=   1.8000n    to=   3.5000n

          ***** job concluded
 ******
 setup_sweep

 ****** transient analysis tnom=  25.000 temp=  25.000 ******
  *** parameter t_setup =   254.0000p       ***
  
 q_max=   1.8028     at=   3.2312n
             from=   1.8000n    to=   3.5000n

          ***** job concluded
 ******
 setup_sweep

 ****** transient analysis tnom=  25.000 temp=  25.000 ******
  *** parameter t_setup =   253.0000p       ***
  
 q_max=   1.8028     at=   3.2277n
             from=   1.8000n    to=   3.5000n

          ***** job concluded
 ******
 setup_sweep

 ****** transient analysis tnom=  25.000 temp=  25.000 ******
  *** parameter t_setup =   252.0000p       ***
  
 q_max=   1.8028     at=   3.2361n
             from=   1.8000n    to=   3.5000n

          ***** job concluded
 ******
 setup_sweep

 ****** transient analysis tnom=  25.000 temp=  25.000 ******
  *** parameter t_setup =   251.0000p       ***
  
 q_max=   1.8028     at=   3.2317n
             from=   1.8000n    to=   3.5000n

          ***** job concluded
 ******
 setup_sweep

 ****** transient analysis tnom=  25.000 temp=  25.000 ******
  *** parameter t_setup =   250.0000p       ***
  
 q_max=   1.8028     at=   3.2308n
             from=   1.8000n    to=   3.5000n

          ***** job concluded
 ******
 setup_sweep

 ****** transient analysis tnom=  25.000 temp=  25.000 ******
  *** parameter t_setup =   249.0000p       ***
  
 q_max=   1.8028     at=   3.2353n
             from=   1.8000n    to=   3.5000n

          ***** job concluded
 ******
 setup_sweep

 ****** transient analysis tnom=  25.000 temp=  25.000 ******
  *** parameter t_setup =   248.0000p       ***
  
 q_max=   1.8028     at=   3.2323n
             from=   1.8000n    to=   3.5000n

          ***** job concluded
 ******
 setup_sweep

 ****** transient analysis tnom=  25.000 temp=  25.000 ******
  *** parameter t_setup =   247.0000p       ***
  
 q_max=   1.8029     at=   3.2343n
             from=   1.8000n    to=   3.5000n

          ***** job concluded
 ******
 setup_sweep

 ****** transient analysis tnom=  25.000 temp=  25.000 ******
  *** parameter t_setup =   246.0000p       ***
  
 q_max=   1.8028     at=   3.2210n
             from=   1.8000n    to=   3.5000n

          ***** job concluded
 ******
 setup_sweep

 ****** transient analysis tnom=  25.000 temp=  25.000 ******
  *** parameter t_setup =   245.0000p       ***
  
 q_max=   1.8029     at=   3.2353n
             from=   1.8000n    to=   3.5000n

          ***** job concluded
 ******
 setup_sweep

 ****** transient analysis tnom=  25.000 temp=  25.000 ******
  *** parameter t_setup =   244.0000p       ***
  
 q_max=   1.8028     at=   3.2344n
             from=   1.8000n    to=   3.5000n

          ***** job concluded
 ******
 setup_sweep

 ****** transient analysis tnom=  25.000 temp=  25.000 ******
  *** parameter t_setup =   243.0000p       ***
  
 q_max=   1.8028     at=   3.2402n
             from=   1.8000n    to=   3.5000n

          ***** job concluded
 ******
 setup_sweep

 ****** transient analysis tnom=  25.000 temp=  25.000 ******
  *** parameter t_setup =   242.0000p       ***
  
 q_max=   1.8028     at=   3.2328n
             from=   1.8000n    to=   3.5000n

          ***** job concluded
 ******
 setup_sweep

 ****** transient analysis tnom=  25.000 temp=  25.000 ******
  *** parameter t_setup =   241.0000p       ***
  
 q_max=   1.8028     at=   3.2401n
             from=   1.8000n    to=   3.5000n

          ***** job concluded
 ******
 setup_sweep

 ****** transient analysis tnom=  25.000 temp=  25.000 ******
  *** parameter t_setup =   240.0000p       ***
  
 q_max=   1.8028     at=   3.2326n
             from=   1.8000n    to=   3.5000n

          ***** job concluded
 ******
 setup_sweep

 ****** transient analysis tnom=  25.000 temp=  25.000 ******
  *** parameter t_setup =   239.0000p       ***
  
 q_max=   1.8028     at=   3.2423n
             from=   1.8000n    to=   3.5000n

          ***** job concluded
 ******
 setup_sweep

 ****** transient analysis tnom=  25.000 temp=  25.000 ******
  *** parameter t_setup =   238.0000p       ***
  
 q_max=   1.8028     at=   3.2340n
             from=   1.8000n    to=   3.5000n

          ***** job concluded
 ******
 setup_sweep

 ****** transient analysis tnom=  25.000 temp=  25.000 ******
  *** parameter t_setup =   237.0000p       ***
  
 q_max=   1.8028     at=   3.2330n
             from=   1.8000n    to=   3.5000n

          ***** job concluded
 ******
 setup_sweep

 ****** transient analysis tnom=  25.000 temp=  25.000 ******
  *** parameter t_setup =   236.0000p       ***
  
 q_max=   1.8029     at=   3.2312n
             from=   1.8000n    to=   3.5000n

          ***** job concluded
 ******
 setup_sweep

 ****** transient analysis tnom=  25.000 temp=  25.000 ******
  *** parameter t_setup =   235.0000p       ***
  
 q_max=   1.8028     at=   3.2346n
             from=   1.8000n    to=   3.5000n

          ***** job concluded
 ******
 setup_sweep

 ****** transient analysis tnom=  25.000 temp=  25.000 ******
  *** parameter t_setup =   234.0000p       ***
  
 q_max=   1.8028     at=   3.2282n
             from=   1.8000n    to=   3.5000n

          ***** job concluded
 ******
 setup_sweep

 ****** transient analysis tnom=  25.000 temp=  25.000 ******
  *** parameter t_setup =   233.0000p       ***
  
 q_max=   1.8028     at=   3.2324n
             from=   1.8000n    to=   3.5000n

          ***** job concluded
 ******
 setup_sweep

 ****** transient analysis tnom=  25.000 temp=  25.000 ******
  *** parameter t_setup =   232.0000p       ***
  
 q_max=   1.8028     at=   3.2266n
             from=   1.8000n    to=   3.5000n

          ***** job concluded
 ******
 setup_sweep

 ****** transient analysis tnom=  25.000 temp=  25.000 ******
  *** parameter t_setup =   231.0000p       ***
  
 q_max=   1.8028     at=   3.2419n
             from=   1.8000n    to=   3.5000n

          ***** job concluded
 ******
 setup_sweep

 ****** transient analysis tnom=  25.000 temp=  25.000 ******
  *** parameter t_setup =   230.0000p       ***
  
 q_max=   1.8028     at=   3.2368n
             from=   1.8000n    to=   3.5000n

          ***** job concluded
 ******
 setup_sweep

 ****** transient analysis tnom=  25.000 temp=  25.000 ******
  *** parameter t_setup =   229.0000p       ***
  
 q_max=   1.8028     at=   3.2327n
             from=   1.8000n    to=   3.5000n

          ***** job concluded
 ******
 setup_sweep

 ****** transient analysis tnom=  25.000 temp=  25.000 ******
  *** parameter t_setup =   228.0000p       ***
  
 q_max=   1.8028     at=   3.2233n
             from=   1.8000n    to=   3.5000n

          ***** job concluded
 ******
 setup_sweep

 ****** transient analysis tnom=  25.000 temp=  25.000 ******
  *** parameter t_setup =   227.0000p       ***
  
 q_max=   1.8028     at=   3.2314n
             from=   1.8000n    to=   3.5000n

          ***** job concluded
 ******
 setup_sweep

 ****** transient analysis tnom=  25.000 temp=  25.000 ******
  *** parameter t_setup =   226.0000p       ***
  
 q_max=   1.8028     at=   3.2269n
             from=   1.8000n    to=   3.5000n

          ***** job concluded
 ******
 setup_sweep

 ****** transient analysis tnom=  25.000 temp=  25.000 ******
  *** parameter t_setup =   225.0000p       ***
  
 q_max=   1.8029     at=   3.2328n
             from=   1.8000n    to=   3.5000n

          ***** job concluded
 ******
 setup_sweep

 ****** transient analysis tnom=  25.000 temp=  25.000 ******
  *** parameter t_setup =   224.0000p       ***
  
 q_max=   1.8028     at=   3.2370n
             from=   1.8000n    to=   3.5000n

          ***** job concluded
 ******
 setup_sweep

 ****** transient analysis tnom=  25.000 temp=  25.000 ******
  *** parameter t_setup =   223.0000p       ***
  
 q_max=   1.8027     at=   3.2206n
             from=   1.8000n    to=   3.5000n

          ***** job concluded
 ******
 setup_sweep

 ****** transient analysis tnom=  25.000 temp=  25.000 ******
  *** parameter t_setup =   222.0000p       ***
  
 q_max=   1.8028     at=   3.2408n
             from=   1.8000n    to=   3.5000n

          ***** job concluded
 ******
 setup_sweep

 ****** transient analysis tnom=  25.000 temp=  25.000 ******
  *** parameter t_setup =   221.0000p       ***
  
 q_max=   1.8028     at=   3.2368n
             from=   1.8000n    to=   3.5000n

          ***** job concluded
 ******
 setup_sweep

 ****** transient analysis tnom=  25.000 temp=  25.000 ******
  *** parameter t_setup =   220.0000p       ***
  
 q_max=   1.8028     at=   3.2401n
             from=   1.8000n    to=   3.5000n

          ***** job concluded
 ******
 setup_sweep

 ****** transient analysis tnom=  25.000 temp=  25.000 ******
  *** parameter t_setup =   219.0000p       ***
  
 q_max=   1.8028     at=   3.2355n
             from=   1.8000n    to=   3.5000n

          ***** job concluded
 ******
 setup_sweep

 ****** transient analysis tnom=  25.000 temp=  25.000 ******
  *** parameter t_setup =   218.0000p       ***
  
 q_max=   1.8028     at=   3.2411n
             from=   1.8000n    to=   3.5000n

          ***** job concluded
 ******
 setup_sweep

 ****** transient analysis tnom=  25.000 temp=  25.000 ******
  *** parameter t_setup =   217.0000p       ***
  
 q_max=   1.8028     at=   3.2320n
             from=   1.8000n    to=   3.5000n

          ***** job concluded
 ******
 setup_sweep

 ****** transient analysis tnom=  25.000 temp=  25.000 ******
  *** parameter t_setup =   216.0000p       ***
  
 q_max=   1.8028     at=   3.2382n
             from=   1.8000n    to=   3.5000n

          ***** job concluded
 ******
 setup_sweep

 ****** transient analysis tnom=  25.000 temp=  25.000 ******
  *** parameter t_setup =   215.0000p       ***
  
 q_max=   1.8028     at=   3.2368n
             from=   1.8000n    to=   3.5000n

          ***** job concluded
 ******
 setup_sweep

 ****** transient analysis tnom=  25.000 temp=  25.000 ******
  *** parameter t_setup =   214.0000p       ***
  
 q_max=   1.8028     at=   3.2293n
             from=   1.8000n    to=   3.5000n

          ***** job concluded
 ******
 setup_sweep

 ****** transient analysis tnom=  25.000 temp=  25.000 ******
  *** parameter t_setup =   213.0000p       ***
  
 q_max=   1.8028     at=   3.2337n
             from=   1.8000n    to=   3.5000n

          ***** job concluded
 ******
 setup_sweep

 ****** transient analysis tnom=  25.000 temp=  25.000 ******
  *** parameter t_setup =   212.0000p       ***
  
 q_max=   1.8028     at=   3.2309n
             from=   1.8000n    to=   3.5000n

          ***** job concluded
 ******
 setup_sweep

 ****** transient analysis tnom=  25.000 temp=  25.000 ******
  *** parameter t_setup =   211.0000p       ***
  
 q_max=   1.8028     at=   3.2363n
             from=   1.8000n    to=   3.5000n

          ***** job concluded
 ******
 setup_sweep

 ****** transient analysis tnom=  25.000 temp=  25.000 ******
  *** parameter t_setup =   210.0000p       ***
  
 q_max=   1.8028     at=   3.2321n
             from=   1.8000n    to=   3.5000n

          ***** job concluded
 ******
 setup_sweep

 ****** transient analysis tnom=  25.000 temp=  25.000 ******
  *** parameter t_setup =   209.0000p       ***
  
 q_max=   1.8028     at=   3.2345n
             from=   1.8000n    to=   3.5000n

          ***** job concluded
 ******
 setup_sweep

 ****** transient analysis tnom=  25.000 temp=  25.000 ******
  *** parameter t_setup =   208.0000p       ***
  
 q_max=   1.8028     at=   3.2290n
             from=   1.8000n    to=   3.5000n

          ***** job concluded
 ******
 setup_sweep

 ****** transient analysis tnom=  25.000 temp=  25.000 ******
  *** parameter t_setup =   207.0000p       ***
  
 q_max=   1.8028     at=   3.2339n
             from=   1.8000n    to=   3.5000n

          ***** job concluded
 ******
 setup_sweep

 ****** transient analysis tnom=  25.000 temp=  25.000 ******
  *** parameter t_setup =   206.0000p       ***
  
 q_max=   1.8028     at=   3.2356n
             from=   1.8000n    to=   3.5000n

          ***** job concluded
 ******
 setup_sweep

 ****** transient analysis tnom=  25.000 temp=  25.000 ******
  *** parameter t_setup =   205.0000p       ***
  
 q_max=   1.8028     at=   3.2344n
             from=   1.8000n    to=   3.5000n

          ***** job concluded
 ******
 setup_sweep

 ****** transient analysis tnom=  25.000 temp=  25.000 ******
  *** parameter t_setup =   204.0000p       ***
  
 q_max=   1.8028     at=   3.2313n
             from=   1.8000n    to=   3.5000n

          ***** job concluded
 ******
 setup_sweep

 ****** transient analysis tnom=  25.000 temp=  25.000 ******
  *** parameter t_setup =   203.0000p       ***
  
 q_max=   1.8028     at=   3.2387n
             from=   1.8000n    to=   3.5000n

          ***** job concluded
 ******
 setup_sweep

 ****** transient analysis tnom=  25.000 temp=  25.000 ******
  *** parameter t_setup =   202.0000p       ***
  
 q_max=   1.8028     at=   3.2290n
             from=   1.8000n    to=   3.5000n

          ***** job concluded
 ******
 setup_sweep

 ****** transient analysis tnom=  25.000 temp=  25.000 ******
  *** parameter t_setup =   201.0000p       ***
  
 q_max=   1.8028     at=   3.2351n
             from=   1.8000n    to=   3.5000n

          ***** job concluded
 ******
 setup_sweep

 ****** transient analysis tnom=  25.000 temp=  25.000 ******
  *** parameter t_setup =   200.0000p       ***
  
 q_max=   1.8028     at=   3.2354n
             from=   1.8000n    to=   3.5000n

          ***** job concluded
 ******
 setup_sweep

 ****** transient analysis tnom=  25.000 temp=  25.000 ******
  *** parameter t_setup =   199.0000p       ***
  
 q_max=   1.8028     at=   3.2344n
             from=   1.8000n    to=   3.5000n

          ***** job concluded
 ******
 setup_sweep

 ****** transient analysis tnom=  25.000 temp=  25.000 ******
  *** parameter t_setup =   198.0000p       ***
  
 q_max=   1.8028     at=   3.2324n
             from=   1.8000n    to=   3.5000n

          ***** job concluded
 ******
 setup_sweep

 ****** transient analysis tnom=  25.000 temp=  25.000 ******
  *** parameter t_setup =   197.0000p       ***
  
 q_max=   1.8028     at=   3.2345n
             from=   1.8000n    to=   3.5000n

          ***** job concluded
 ******
 setup_sweep

 ****** transient analysis tnom=  25.000 temp=  25.000 ******
  *** parameter t_setup =   196.0000p       ***
  
 q_max=   1.8029     at=   3.2333n
             from=   1.8000n    to=   3.5000n

          ***** job concluded
 ******
 setup_sweep

 ****** transient analysis tnom=  25.000 temp=  25.000 ******
  *** parameter t_setup =   195.0000p       ***
  
 q_max=   1.8028     at=   3.2346n
             from=   1.8000n    to=   3.5000n

          ***** job concluded
 ******
 setup_sweep

 ****** transient analysis tnom=  25.000 temp=  25.000 ******
  *** parameter t_setup =   194.0000p       ***
  
 q_max=   1.8029     at=   3.2322n
             from=   1.8000n    to=   3.5000n

          ***** job concluded
 ******
 setup_sweep

 ****** transient analysis tnom=  25.000 temp=  25.000 ******
  *** parameter t_setup =   193.0000p       ***
  
 q_max=   1.8028     at=   3.2262n
             from=   1.8000n    to=   3.5000n

          ***** job concluded
 ******
 setup_sweep

 ****** transient analysis tnom=  25.000 temp=  25.000 ******
  *** parameter t_setup =   192.0000p       ***
  
 q_max=   1.8028     at=   3.2333n
             from=   1.8000n    to=   3.5000n

          ***** job concluded
 ******
 setup_sweep

 ****** transient analysis tnom=  25.000 temp=  25.000 ******
  *** parameter t_setup =   191.0000p       ***
  
 q_max=   1.8028     at=   3.2332n
             from=   1.8000n    to=   3.5000n

          ***** job concluded
 ******
 setup_sweep

 ****** transient analysis tnom=  25.000 temp=  25.000 ******
  *** parameter t_setup =   190.0000p       ***
  
 q_max=   1.8028     at=   3.2329n
             from=   1.8000n    to=   3.5000n

          ***** job concluded
 ******
 setup_sweep

 ****** transient analysis tnom=  25.000 temp=  25.000 ******
  *** parameter t_setup =   189.0000p       ***
  
 q_max=   1.8028     at=   3.2259n
             from=   1.8000n    to=   3.5000n

          ***** job concluded
 ******
 setup_sweep

 ****** transient analysis tnom=  25.000 temp=  25.000 ******
  *** parameter t_setup =   188.0000p       ***
  
 q_max=   1.8028     at=   3.2339n
             from=   1.8000n    to=   3.5000n

          ***** job concluded
 ******
 setup_sweep

 ****** transient analysis tnom=  25.000 temp=  25.000 ******
  *** parameter t_setup =   187.0000p       ***
  
 q_max=   1.8028     at=   3.2360n
             from=   1.8000n    to=   3.5000n

          ***** job concluded
 ******
 setup_sweep

 ****** transient analysis tnom=  25.000 temp=  25.000 ******
  *** parameter t_setup =   186.0000p       ***
  
 q_max=   1.8028     at=   3.2240n
             from=   1.8000n    to=   3.5000n

          ***** job concluded
 ******
 setup_sweep

 ****** transient analysis tnom=  25.000 temp=  25.000 ******
  *** parameter t_setup =   185.0000p       ***
  
 q_max=   1.8028     at=   3.2347n
             from=   1.8000n    to=   3.5000n

          ***** job concluded
 ******
 setup_sweep

 ****** transient analysis tnom=  25.000 temp=  25.000 ******
  *** parameter t_setup =   184.0000p       ***
  
 q_max=   1.8028     at=   3.2367n
             from=   1.8000n    to=   3.5000n

          ***** job concluded
 ******
 setup_sweep

 ****** transient analysis tnom=  25.000 temp=  25.000 ******
  *** parameter t_setup =   183.0000p       ***
  
 q_max=   1.8028     at=   3.2295n
             from=   1.8000n    to=   3.5000n

          ***** job concluded
 ******
 setup_sweep

 ****** transient analysis tnom=  25.000 temp=  25.000 ******
  *** parameter t_setup =   182.0000p       ***
  
 q_max=   1.8028     at=   3.2309n
             from=   1.8000n    to=   3.5000n

          ***** job concluded
 ******
 setup_sweep

 ****** transient analysis tnom=  25.000 temp=  25.000 ******
  *** parameter t_setup =   181.0000p       ***
  
 q_max=   1.8028     at=   3.2322n
             from=   1.8000n    to=   3.5000n

          ***** job concluded
 ******
 setup_sweep

 ****** transient analysis tnom=  25.000 temp=  25.000 ******
  *** parameter t_setup =   180.0000p       ***
  
 q_max=   1.8028     at=   3.2372n
             from=   1.8000n    to=   3.5000n

          ***** job concluded
 ******
 setup_sweep

 ****** transient analysis tnom=  25.000 temp=  25.000 ******
  *** parameter t_setup =   179.0000p       ***
  
 q_max=   1.8028     at=   3.2306n
             from=   1.8000n    to=   3.5000n

          ***** job concluded
 ******
 setup_sweep

 ****** transient analysis tnom=  25.000 temp=  25.000 ******
  *** parameter t_setup =   178.0000p       ***
  
 q_max=   1.8028     at=   3.2319n
             from=   1.8000n    to=   3.5000n

          ***** job concluded
 ******
 setup_sweep

 ****** transient analysis tnom=  25.000 temp=  25.000 ******
  *** parameter t_setup =   177.0000p       ***
  
 q_max=   1.8028     at=   3.2256n
             from=   1.8000n    to=   3.5000n

          ***** job concluded
 ******
 setup_sweep

 ****** transient analysis tnom=  25.000 temp=  25.000 ******
  *** parameter t_setup =   176.0000p       ***
  
 q_max=   1.8028     at=   3.2386n
             from=   1.8000n    to=   3.5000n

          ***** job concluded
 ******
 setup_sweep

 ****** transient analysis tnom=  25.000 temp=  25.000 ******
  *** parameter t_setup =   175.0000p       ***
  
 q_max=   1.8028     at=   3.2295n
             from=   1.8000n    to=   3.5000n

          ***** job concluded
 ******
 setup_sweep

 ****** transient analysis tnom=  25.000 temp=  25.000 ******
  *** parameter t_setup =   174.0000p       ***
  
 q_max=   1.8028     at=   3.2285n
             from=   1.8000n    to=   3.5000n

          ***** job concluded
 ******
 setup_sweep

 ****** transient analysis tnom=  25.000 temp=  25.000 ******
  *** parameter t_setup =   173.0000p       ***
  
 q_max=   1.8028     at=   3.2270n
             from=   1.8000n    to=   3.5000n

          ***** job concluded
 ******
 setup_sweep

 ****** transient analysis tnom=  25.000 temp=  25.000 ******
  *** parameter t_setup =   172.0000p       ***
  
 q_max=   1.8028     at=   3.2349n
             from=   1.8000n    to=   3.5000n

          ***** job concluded
 ******
 setup_sweep

 ****** transient analysis tnom=  25.000 temp=  25.000 ******
  *** parameter t_setup =   171.0000p       ***
  
 q_max=   1.8028     at=   3.2311n
             from=   1.8000n    to=   3.5000n

          ***** job concluded
 ******
 setup_sweep

 ****** transient analysis tnom=  25.000 temp=  25.000 ******
  *** parameter t_setup =   170.0000p       ***
  
 q_max=   1.8028     at=   3.2346n
             from=   1.8000n    to=   3.5000n

          ***** job concluded
 ******
 setup_sweep

 ****** transient analysis tnom=  25.000 temp=  25.000 ******
  *** parameter t_setup =   169.0000p       ***
  
 q_max=   1.8028     at=   3.2269n
             from=   1.8000n    to=   3.5000n

          ***** job concluded
 ******
 setup_sweep

 ****** transient analysis tnom=  25.000 temp=  25.000 ******
  *** parameter t_setup =   168.0000p       ***
  
 q_max=   1.8028     at=   3.2318n
             from=   1.8000n    to=   3.5000n

          ***** job concluded
 ******
 setup_sweep

 ****** transient analysis tnom=  25.000 temp=  25.000 ******
  *** parameter t_setup =   167.0000p       ***
  
 q_max=   1.8028     at=   3.2366n
             from=   1.8000n    to=   3.5000n

          ***** job concluded
 ******
 setup_sweep

 ****** transient analysis tnom=  25.000 temp=  25.000 ******
  *** parameter t_setup =   166.0000p       ***
  
 q_max=   1.8028     at=   3.2380n
             from=   1.8000n    to=   3.5000n

          ***** job concluded
 ******
 setup_sweep

 ****** transient analysis tnom=  25.000 temp=  25.000 ******
  *** parameter t_setup =   165.0000p       ***
  
 q_max=   1.8028     at=   3.2281n
             from=   1.8000n    to=   3.5000n

          ***** job concluded
 ******
 setup_sweep

 ****** transient analysis tnom=  25.000 temp=  25.000 ******
  *** parameter t_setup =   164.0000p       ***
  
 q_max=   1.8028     at=   3.2342n
             from=   1.8000n    to=   3.5000n

          ***** job concluded
 ******
 setup_sweep

 ****** transient analysis tnom=  25.000 temp=  25.000 ******
  *** parameter t_setup =   163.0000p       ***
  
 q_max=   1.8028     at=   3.2312n
             from=   1.8000n    to=   3.5000n

          ***** job concluded
 ******
 setup_sweep

 ****** transient analysis tnom=  25.000 temp=  25.000 ******
  *** parameter t_setup =   162.0000p       ***
  
 q_max=   1.8028     at=   3.2394n
             from=   1.8000n    to=   3.5000n

          ***** job concluded
 ******
 setup_sweep

 ****** transient analysis tnom=  25.000 temp=  25.000 ******
  *** parameter t_setup =   161.0000p       ***
  
 q_max=   1.8028     at=   3.2354n
             from=   1.8000n    to=   3.5000n

          ***** job concluded
 ******
 setup_sweep

 ****** transient analysis tnom=  25.000 temp=  25.000 ******
  *** parameter t_setup =   160.0000p       ***
  
 q_max=   1.8028     at=   3.2384n
             from=   1.8000n    to=   3.5000n

          ***** job concluded
 ******
 setup_sweep

 ****** transient analysis tnom=  25.000 temp=  25.000 ******
  *** parameter t_setup =   159.0000p       ***
  
 q_max=   1.8028     at=   3.2356n
             from=   1.8000n    to=   3.5000n

          ***** job concluded
 ******
 setup_sweep

 ****** transient analysis tnom=  25.000 temp=  25.000 ******
  *** parameter t_setup =   158.0000p       ***
  
 q_max=   1.8028     at=   3.2375n
             from=   1.8000n    to=   3.5000n

          ***** job concluded
 ******
 setup_sweep

 ****** transient analysis tnom=  25.000 temp=  25.000 ******
  *** parameter t_setup =   157.0000p       ***
  
 q_max=   1.8028     at=   3.2268n
             from=   1.8000n    to=   3.5000n

          ***** job concluded
 ******
 setup_sweep

 ****** transient analysis tnom=  25.000 temp=  25.000 ******
  *** parameter t_setup =   156.0000p       ***
  
 q_max=   1.8028     at=   3.2262n
             from=   1.8000n    to=   3.5000n

          ***** job concluded
 ******
 setup_sweep

 ****** transient analysis tnom=  25.000 temp=  25.000 ******
  *** parameter t_setup =   155.0000p       ***
  
 q_max=   1.8028     at=   3.2302n
             from=   1.8000n    to=   3.5000n

          ***** job concluded
 ******
 setup_sweep

 ****** transient analysis tnom=  25.000 temp=  25.000 ******
  *** parameter t_setup =   154.0000p       ***
  
 q_max=   1.8028     at=   3.2227n
             from=   1.8000n    to=   3.5000n

          ***** job concluded
 ******
 setup_sweep

 ****** transient analysis tnom=  25.000 temp=  25.000 ******
  *** parameter t_setup =   153.0000p       ***
  
 q_max=   1.8028     at=   3.2321n
             from=   1.8000n    to=   3.5000n

          ***** job concluded
 ******
 setup_sweep

 ****** transient analysis tnom=  25.000 temp=  25.000 ******
  *** parameter t_setup =   152.0000p       ***
  
 q_max=   1.8028     at=   3.2371n
             from=   1.8000n    to=   3.5000n

          ***** job concluded
 ******
 setup_sweep

 ****** transient analysis tnom=  25.000 temp=  25.000 ******
  *** parameter t_setup =   151.0000p       ***
  
 q_max=   1.8028     at=   3.2352n
             from=   1.8000n    to=   3.5000n

          ***** job concluded
 ******
 setup_sweep

 ****** transient analysis tnom=  25.000 temp=  25.000 ******
  *** parameter t_setup =   150.0000p       ***
  
 q_max=   1.8028     at=   3.2341n
             from=   1.8000n    to=   3.5000n

          ***** job concluded
 ******
 setup_sweep

 ****** transient analysis tnom=  25.000 temp=  25.000 ******
  *** parameter t_setup =   149.0000p       ***
  
 q_max=   1.8028     at=   3.2291n
             from=   1.8000n    to=   3.5000n

          ***** job concluded
 ******
 setup_sweep

 ****** transient analysis tnom=  25.000 temp=  25.000 ******
  *** parameter t_setup =   148.0000p       ***
  
 q_max=   1.8028     at=   3.2311n
             from=   1.8000n    to=   3.5000n

          ***** job concluded
 ******
 setup_sweep

 ****** transient analysis tnom=  25.000 temp=  25.000 ******
  *** parameter t_setup =   147.0000p       ***
  
 q_max=   1.8028     at=   3.2376n
             from=   1.8000n    to=   3.5000n

          ***** job concluded
 ******
 setup_sweep

 ****** transient analysis tnom=  25.000 temp=  25.000 ******
  *** parameter t_setup =   146.0000p       ***
  
 q_max=   1.8028     at=   3.2403n
             from=   1.8000n    to=   3.5000n

          ***** job concluded
 ******
 setup_sweep

 ****** transient analysis tnom=  25.000 temp=  25.000 ******
  *** parameter t_setup =   145.0000p       ***
  
 q_max=   1.8028     at=   3.2308n
             from=   1.8000n    to=   3.5000n

          ***** job concluded
 ******
 setup_sweep

 ****** transient analysis tnom=  25.000 temp=  25.000 ******
  *** parameter t_setup =   144.0000p       ***
  
 q_max=   1.8028     at=   3.2349n
             from=   1.8000n    to=   3.5000n

          ***** job concluded
 ******
 setup_sweep

 ****** transient analysis tnom=  25.000 temp=  25.000 ******
  *** parameter t_setup =   143.0000p       ***
  
 q_max=   1.8028     at=   3.2347n
             from=   1.8000n    to=   3.5000n

          ***** job concluded
 ******
 setup_sweep

 ****** transient analysis tnom=  25.000 temp=  25.000 ******
  *** parameter t_setup =   142.0000p       ***
  
 q_max=   1.8028     at=   3.2386n
             from=   1.8000n    to=   3.5000n

          ***** job concluded
 ******
 setup_sweep

 ****** transient analysis tnom=  25.000 temp=  25.000 ******
  *** parameter t_setup =   141.0000p       ***
  
 q_max=   1.8028     at=   3.2399n
             from=   1.8000n    to=   3.5000n

          ***** job concluded
 ******
 setup_sweep

 ****** transient analysis tnom=  25.000 temp=  25.000 ******
  *** parameter t_setup =   140.0000p       ***
  
 q_max=   1.8029     at=   3.2330n
             from=   1.8000n    to=   3.5000n

          ***** job concluded
 ******
 setup_sweep

 ****** transient analysis tnom=  25.000 temp=  25.000 ******
  *** parameter t_setup =   139.0000p       ***
  
 q_max=   1.8029     at=   3.2346n
             from=   1.8000n    to=   3.5000n

          ***** job concluded
 ******
 setup_sweep

 ****** transient analysis tnom=  25.000 temp=  25.000 ******
  *** parameter t_setup =   138.0000p       ***
  
 q_max=   1.8028     at=   3.2357n
             from=   1.8000n    to=   3.5000n

          ***** job concluded
 ******
 setup_sweep

 ****** transient analysis tnom=  25.000 temp=  25.000 ******
  *** parameter t_setup =   137.0000p       ***
  
 q_max=   1.8028     at=   3.2320n
             from=   1.8000n    to=   3.5000n

          ***** job concluded
 ******
 setup_sweep

 ****** transient analysis tnom=  25.000 temp=  25.000 ******
  *** parameter t_setup =   136.0000p       ***
  
 q_max=   1.8028     at=   3.2371n
             from=   1.8000n    to=   3.5000n

          ***** job concluded
 ******
 setup_sweep

 ****** transient analysis tnom=  25.000 temp=  25.000 ******
  *** parameter t_setup =   135.0000p       ***
  
 q_max=   1.8028     at=   3.2354n
             from=   1.8000n    to=   3.5000n

          ***** job concluded
 ******
 setup_sweep

 ****** transient analysis tnom=  25.000 temp=  25.000 ******
  *** parameter t_setup =   134.0000p       ***
  
 q_max=   1.8028     at=   3.2288n
             from=   1.8000n    to=   3.5000n

          ***** job concluded
 ******
 setup_sweep

 ****** transient analysis tnom=  25.000 temp=  25.000 ******
  *** parameter t_setup =   133.0000p       ***
  
 q_max=   1.8028     at=   3.2379n
             from=   1.8000n    to=   3.5000n

          ***** job concluded
 ******
 setup_sweep

 ****** transient analysis tnom=  25.000 temp=  25.000 ******
  *** parameter t_setup =   132.0000p       ***
  
 q_max=   1.8028     at=   3.2303n
             from=   1.8000n    to=   3.5000n

          ***** job concluded
 ******
 setup_sweep

 ****** transient analysis tnom=  25.000 temp=  25.000 ******
  *** parameter t_setup =   131.0000p       ***
  
 q_max=   1.8028     at=   3.2341n
             from=   1.8000n    to=   3.5000n

          ***** job concluded
 ******
 setup_sweep

 ****** transient analysis tnom=  25.000 temp=  25.000 ******
  *** parameter t_setup =   130.0000p       ***
  
 q_max=   1.8028     at=   3.2215n
             from=   1.8000n    to=   3.5000n

          ***** job concluded
 ******
 setup_sweep

 ****** transient analysis tnom=  25.000 temp=  25.000 ******
  *** parameter t_setup =   129.0000p       ***
  
 q_max=   1.8028     at=   3.2405n
             from=   1.8000n    to=   3.5000n

          ***** job concluded
 ******
 setup_sweep

 ****** transient analysis tnom=  25.000 temp=  25.000 ******
  *** parameter t_setup =   128.0000p       ***
  
 q_max=   1.8028     at=   3.2366n
             from=   1.8000n    to=   3.5000n

          ***** job concluded
 ******
 setup_sweep

 ****** transient analysis tnom=  25.000 temp=  25.000 ******
  *** parameter t_setup =   127.0000p       ***
  
 q_max=   1.8028     at=   3.2362n
             from=   1.8000n    to=   3.5000n

          ***** job concluded
 ******
 setup_sweep

 ****** transient analysis tnom=  25.000 temp=  25.000 ******
  *** parameter t_setup =   126.0000p       ***
  
 q_max=   1.8029     at=   3.2344n
             from=   1.8000n    to=   3.5000n

          ***** job concluded
 ******
 setup_sweep

 ****** transient analysis tnom=  25.000 temp=  25.000 ******
  *** parameter t_setup =   125.0000p       ***
  
 q_max=   1.8028     at=   3.2315n
             from=   1.8000n    to=   3.5000n

          ***** job concluded
 ******
 setup_sweep

 ****** transient analysis tnom=  25.000 temp=  25.000 ******
  *** parameter t_setup =   124.0000p       ***
  
 q_max=   1.8028     at=   3.2318n
             from=   1.8000n    to=   3.5000n

          ***** job concluded
 ******
 setup_sweep

 ****** transient analysis tnom=  25.000 temp=  25.000 ******
  *** parameter t_setup =   123.0000p       ***
  
 q_max=   1.8029     at=   3.2329n
             from=   1.8000n    to=   3.5000n

          ***** job concluded
 ******
 setup_sweep

 ****** transient analysis tnom=  25.000 temp=  25.000 ******
  *** parameter t_setup =   122.0000p       ***
  
 q_max=   1.8029     at=   3.2341n
             from=   1.8000n    to=   3.5000n

          ***** job concluded
 ******
 setup_sweep

 ****** transient analysis tnom=  25.000 temp=  25.000 ******
  *** parameter t_setup =   121.0000p       ***
  
 q_max=   1.8028     at=   3.2233n
             from=   1.8000n    to=   3.5000n

          ***** job concluded
 ******
 setup_sweep

 ****** transient analysis tnom=  25.000 temp=  25.000 ******
  *** parameter t_setup =   120.0000p       ***
  
 q_max=   1.8028     at=   3.2392n
             from=   1.8000n    to=   3.5000n

          ***** job concluded
 ******
 setup_sweep

 ****** transient analysis tnom=  25.000 temp=  25.000 ******
  *** parameter t_setup =   119.0000p       ***
  
 q_max=   1.8028     at=   3.2345n
             from=   1.8000n    to=   3.5000n

          ***** job concluded
 ******
 setup_sweep

 ****** transient analysis tnom=  25.000 temp=  25.000 ******
  *** parameter t_setup =   118.0000p       ***
  
 q_max=   1.8028     at=   3.2258n
             from=   1.8000n    to=   3.5000n

          ***** job concluded
 ******
 setup_sweep

 ****** transient analysis tnom=  25.000 temp=  25.000 ******
  *** parameter t_setup =   117.0000p       ***
  
 q_max=   1.8028     at=   3.2293n
             from=   1.8000n    to=   3.5000n

          ***** job concluded
 ******
 setup_sweep

 ****** transient analysis tnom=  25.000 temp=  25.000 ******
  *** parameter t_setup =   116.0000p       ***
  
 q_max=   1.8028     at=   3.2388n
             from=   1.8000n    to=   3.5000n

          ***** job concluded
 ******
 setup_sweep

 ****** transient analysis tnom=  25.000 temp=  25.000 ******
  *** parameter t_setup =   115.0000p       ***
  
 q_max=   1.8028     at=   3.2360n
             from=   1.8000n    to=   3.5000n

          ***** job concluded
 ******
 setup_sweep

 ****** transient analysis tnom=  25.000 temp=  25.000 ******
  *** parameter t_setup =   114.0000p       ***
  
 q_max=   1.8029     at=   3.2347n
             from=   1.8000n    to=   3.5000n

          ***** job concluded
 ******
 setup_sweep

 ****** transient analysis tnom=  25.000 temp=  25.000 ******
  *** parameter t_setup =   113.0000p       ***
  
 q_max=   1.8028     at=   3.2275n
             from=   1.8000n    to=   3.5000n

          ***** job concluded
 ******
 setup_sweep

 ****** transient analysis tnom=  25.000 temp=  25.000 ******
  *** parameter t_setup =   112.0000p       ***
  
 q_max=   1.8028     at=   3.2344n
             from=   1.8000n    to=   3.5000n

          ***** job concluded
 ******
 setup_sweep

 ****** transient analysis tnom=  25.000 temp=  25.000 ******
  *** parameter t_setup =   111.0000p       ***
  
 q_max=   1.8029     at=   3.2356n
             from=   1.8000n    to=   3.5000n

          ***** job concluded
 ******
 setup_sweep

 ****** transient analysis tnom=  25.000 temp=  25.000 ******
  *** parameter t_setup =   110.0000p       ***
  
 q_max=   1.8028     at=   3.2233n
             from=   1.8000n    to=   3.5000n

          ***** job concluded
 ******
 setup_sweep

 ****** transient analysis tnom=  25.000 temp=  25.000 ******
  *** parameter t_setup =   109.0000p       ***
  
 q_max=   1.8028     at=   3.2385n
             from=   1.8000n    to=   3.5000n

          ***** job concluded
 ******
 setup_sweep

 ****** transient analysis tnom=  25.000 temp=  25.000 ******
  *** parameter t_setup =   108.0000p       ***
  
 q_max=   1.8028     at=   3.2389n
             from=   1.8000n    to=   3.5000n

          ***** job concluded
 ******
 setup_sweep

 ****** transient analysis tnom=  25.000 temp=  25.000 ******
  *** parameter t_setup =   107.0000p       ***
  
 q_max=   1.8028     at=   3.2310n
             from=   1.8000n    to=   3.5000n

          ***** job concluded
 ******
 setup_sweep

 ****** transient analysis tnom=  25.000 temp=  25.000 ******
  *** parameter t_setup =   106.0000p       ***
  
 q_max=   1.8028     at=   3.2221n
             from=   1.8000n    to=   3.5000n

          ***** job concluded
 ******
 setup_sweep

 ****** transient analysis tnom=  25.000 temp=  25.000 ******
  *** parameter t_setup =   105.0000p       ***
  
 q_max=   1.8029     at=   3.2322n
             from=   1.8000n    to=   3.5000n

          ***** job concluded
 ******
 setup_sweep

 ****** transient analysis tnom=  25.000 temp=  25.000 ******
  *** parameter t_setup =   104.0000p       ***
  
 q_max=   1.8028     at=   3.2344n
             from=   1.8000n    to=   3.5000n

          ***** job concluded
 ******
 setup_sweep

 ****** transient analysis tnom=  25.000 temp=  25.000 ******
  *** parameter t_setup =   103.0000p       ***
  
 q_max=   1.8028     at=   3.2292n
             from=   1.8000n    to=   3.5000n

          ***** job concluded
 ******
 setup_sweep

 ****** transient analysis tnom=  25.000 temp=  25.000 ******
  *** parameter t_setup =   102.0000p       ***
  
 q_max=   1.8028     at=   3.2322n
             from=   1.8000n    to=   3.5000n

          ***** job concluded
 ******
 setup_sweep

 ****** transient analysis tnom=  25.000 temp=  25.000 ******
  *** parameter t_setup =   101.0000p       ***
  
 q_max=   1.8028     at=   3.2418n
             from=   1.8000n    to=   3.5000n

          ***** job concluded
 ******
 setup_sweep

 ****** transient analysis tnom=  25.000 temp=  25.000 ******
  *** parameter t_setup =   100.0000p       ***
  
 q_max=   1.8028     at=   3.2307n
             from=   1.8000n    to=   3.5000n

          ***** job concluded
 ******
 setup_sweep

 ****** transient analysis tnom=  25.000 temp=  25.000 ******
  *** parameter t_setup =    99.0000p       ***
  
 q_max=   1.8028     at=   3.2314n
             from=   1.8000n    to=   3.5000n

          ***** job concluded
 ******
 setup_sweep

 ****** transient analysis tnom=  25.000 temp=  25.000 ******
  *** parameter t_setup =    98.0000p       ***
  
 q_max=   1.8029     at=   3.2310n
             from=   1.8000n    to=   3.5000n

          ***** job concluded
 ******
 setup_sweep

 ****** transient analysis tnom=  25.000 temp=  25.000 ******
  *** parameter t_setup =    97.0000p       ***
  
 q_max=   1.8028     at=   3.2352n
             from=   1.8000n    to=   3.5000n

          ***** job concluded
 ******
 setup_sweep

 ****** transient analysis tnom=  25.000 temp=  25.000 ******
  *** parameter t_setup =    96.0000p       ***
  
 q_max=   1.8028     at=   3.2315n
             from=   1.8000n    to=   3.5000n

          ***** job concluded
 ******
 setup_sweep

 ****** transient analysis tnom=  25.000 temp=  25.000 ******
  *** parameter t_setup =    95.0000p       ***
  
 q_max=   1.8028     at=   3.2349n
             from=   1.8000n    to=   3.5000n

          ***** job concluded
 ******
 setup_sweep

 ****** transient analysis tnom=  25.000 temp=  25.000 ******
  *** parameter t_setup =    94.0000p       ***
  
 q_max=   1.8029     at=   3.2317n
             from=   1.8000n    to=   3.5000n

          ***** job concluded
 ******
 setup_sweep

 ****** transient analysis tnom=  25.000 temp=  25.000 ******
  *** parameter t_setup =    93.0000p       ***
  
 q_max=   1.8028     at=   3.2263n
             from=   1.8000n    to=   3.5000n

          ***** job concluded
 ******
 setup_sweep

 ****** transient analysis tnom=  25.000 temp=  25.000 ******
  *** parameter t_setup =    92.0000p       ***
  
 q_max=   1.8028     at=   3.2291n
             from=   1.8000n    to=   3.5000n

          ***** job concluded
 ******
 setup_sweep

 ****** transient analysis tnom=  25.000 temp=  25.000 ******
  *** parameter t_setup =    91.0000p       ***
  
 q_max=   1.8028     at=   3.2388n
             from=   1.8000n    to=   3.5000n

          ***** job concluded
 ******
 setup_sweep

 ****** transient analysis tnom=  25.000 temp=  25.000 ******
  *** parameter t_setup =    90.0000p       ***
  
 q_max=   1.8028     at=   3.2324n
             from=   1.8000n    to=   3.5000n

          ***** job concluded
 ******
 setup_sweep

 ****** transient analysis tnom=  25.000 temp=  25.000 ******
  *** parameter t_setup =    89.0000p       ***
  
 q_max=   1.8028     at=   3.2331n
             from=   1.8000n    to=   3.5000n

          ***** job concluded
 ******
 setup_sweep

 ****** transient analysis tnom=  25.000 temp=  25.000 ******
  *** parameter t_setup =    88.0000p       ***
  
 q_max=   1.8029     at=   3.2323n
             from=   1.8000n    to=   3.5000n

          ***** job concluded
 ******
 setup_sweep

 ****** transient analysis tnom=  25.000 temp=  25.000 ******
  *** parameter t_setup =    87.0000p       ***
  
 q_max=   1.8028     at=   3.2352n
             from=   1.8000n    to=   3.5000n

          ***** job concluded
 ******
 setup_sweep

 ****** transient analysis tnom=  25.000 temp=  25.000 ******
  *** parameter t_setup =    86.0000p       ***
  
 q_max=   1.8028     at=   3.2332n
             from=   1.8000n    to=   3.5000n

          ***** job concluded
 ******
 setup_sweep

 ****** transient analysis tnom=  25.000 temp=  25.000 ******
  *** parameter t_setup =    85.0000p       ***
  
 q_max=   1.8029     at=   3.2359n
             from=   1.8000n    to=   3.5000n

          ***** job concluded
 ******
 setup_sweep

 ****** transient analysis tnom=  25.000 temp=  25.000 ******
  *** parameter t_setup =    84.0000p       ***
  
 q_max=   1.8028     at=   3.2393n
             from=   1.8000n    to=   3.5000n

          ***** job concluded
 ******
 setup_sweep

 ****** transient analysis tnom=  25.000 temp=  25.000 ******
  *** parameter t_setup =    83.0000p       ***
  
 q_max=   1.8028     at=   3.2262n
             from=   1.8000n    to=   3.5000n

          ***** job concluded
 ******
 setup_sweep

 ****** transient analysis tnom=  25.000 temp=  25.000 ******
  *** parameter t_setup =    82.0000p       ***
  
 q_max=   1.8028     at=   3.2281n
             from=   1.8000n    to=   3.5000n

          ***** job concluded
 ******
 setup_sweep

 ****** transient analysis tnom=  25.000 temp=  25.000 ******
  *** parameter t_setup =    81.0000p       ***
  
 q_max=   1.8028     at=   3.2316n
             from=   1.8000n    to=   3.5000n

          ***** job concluded
 ******
 setup_sweep

 ****** transient analysis tnom=  25.000 temp=  25.000 ******
  *** parameter t_setup =    80.0000p       ***
  
 q_max=   1.8028     at=   3.2287n
             from=   1.8000n    to=   3.5000n

          ***** job concluded
 ******
 setup_sweep

 ****** transient analysis tnom=  25.000 temp=  25.000 ******
  *** parameter t_setup =    79.0000p       ***
  
 q_max=   1.8028     at=   3.2315n
             from=   1.8000n    to=   3.5000n

          ***** job concluded
 ******
 setup_sweep

 ****** transient analysis tnom=  25.000 temp=  25.000 ******
  *** parameter t_setup =    78.0000p       ***
  
 q_max=   1.8028     at=   3.2394n
             from=   1.8000n    to=   3.5000n

          ***** job concluded
 ******
 setup_sweep

 ****** transient analysis tnom=  25.000 temp=  25.000 ******
  *** parameter t_setup =    77.0000p       ***
  
 q_max=   1.8028     at=   3.2401n
             from=   1.8000n    to=   3.5000n

          ***** job concluded
 ******
 setup_sweep

 ****** transient analysis tnom=  25.000 temp=  25.000 ******
  *** parameter t_setup =    76.0000p       ***
  
 q_max=   1.8029     at=   3.2322n
             from=   1.8000n    to=   3.5000n

          ***** job concluded
 ******
 setup_sweep

 ****** transient analysis tnom=  25.000 temp=  25.000 ******
  *** parameter t_setup =    75.0000p       ***
  
 q_max=   1.8029     at=   3.2364n
             from=   1.8000n    to=   3.5000n

          ***** job concluded
 ******
 setup_sweep

 ****** transient analysis tnom=  25.000 temp=  25.000 ******
  *** parameter t_setup =    74.0000p       ***
  
 q_max=   1.8028     at=   3.2344n
             from=   1.8000n    to=   3.5000n

          ***** job concluded
 ******
 setup_sweep

 ****** transient analysis tnom=  25.000 temp=  25.000 ******
  *** parameter t_setup =    73.0000p       ***
  
 q_max=   1.8028     at=   3.2320n
             from=   1.8000n    to=   3.5000n

          ***** job concluded
 ******
 setup_sweep

 ****** transient analysis tnom=  25.000 temp=  25.000 ******
  *** parameter t_setup =    72.0000p       ***
  
 q_max=   1.8029     at=   3.2342n
             from=   1.8000n    to=   3.5000n

          ***** job concluded
 ******
 setup_sweep

 ****** transient analysis tnom=  25.000 temp=  25.000 ******
  *** parameter t_setup =    71.0000p       ***
  
 q_max=   1.8028     at=   3.2301n
             from=   1.8000n    to=   3.5000n

          ***** job concluded
 ******
 setup_sweep

 ****** transient analysis tnom=  25.000 temp=  25.000 ******
  *** parameter t_setup =    70.0000p       ***
  
 q_max=   1.8028     at=   3.2322n
             from=   1.8000n    to=   3.5000n

          ***** job concluded
 ******
 setup_sweep

 ****** transient analysis tnom=  25.000 temp=  25.000 ******
  *** parameter t_setup =    69.0000p       ***
  
 q_max=   1.8028     at=   3.2381n
             from=   1.8000n    to=   3.5000n

          ***** job concluded
 ******
 setup_sweep

 ****** transient analysis tnom=  25.000 temp=  25.000 ******
  *** parameter t_setup =    68.0000p       ***
  
 q_max=   1.8028     at=   3.2268n
             from=   1.8000n    to=   3.5000n

          ***** job concluded
 ******
 setup_sweep

 ****** transient analysis tnom=  25.000 temp=  25.000 ******
  *** parameter t_setup =    67.0000p       ***
  
 q_max=   1.8029     at=   3.2323n
             from=   1.8000n    to=   3.5000n

          ***** job concluded
 ******
 setup_sweep

 ****** transient analysis tnom=  25.000 temp=  25.000 ******
  *** parameter t_setup =    66.0000p       ***
  
 q_max=   1.8028     at=   3.2225n
             from=   1.8000n    to=   3.5000n

          ***** job concluded
 ******
 setup_sweep

 ****** transient analysis tnom=  25.000 temp=  25.000 ******
  *** parameter t_setup =    65.0000p       ***
  
 q_max=   1.8028     at=   3.2308n
             from=   1.8000n    to=   3.5000n

          ***** job concluded
 ******
 setup_sweep

 ****** transient analysis tnom=  25.000 temp=  25.000 ******
  *** parameter t_setup =    64.0000p       ***
  
 q_max=   1.8028     at=   3.2379n
             from=   1.8000n    to=   3.5000n

          ***** job concluded
 ******
 setup_sweep

 ****** transient analysis tnom=  25.000 temp=  25.000 ******
  *** parameter t_setup =    63.0000p       ***
  
 q_max=   1.8028     at=   3.2330n
             from=   1.8000n    to=   3.5000n

          ***** job concluded
 ******
 setup_sweep

 ****** transient analysis tnom=  25.000 temp=  25.000 ******
  *** parameter t_setup =    62.0000p       ***
  
 q_max=   1.8028     at=   3.2324n
             from=   1.8000n    to=   3.5000n

          ***** job concluded
 ******
 setup_sweep

 ****** transient analysis tnom=  25.000 temp=  25.000 ******
  *** parameter t_setup =    61.0000p       ***
  
 q_max=   1.8028     at=   3.2327n
             from=   1.8000n    to=   3.5000n

          ***** job concluded
 ******
 setup_sweep

 ****** transient analysis tnom=  25.000 temp=  25.000 ******
  *** parameter t_setup =    60.0000p       ***
  
 q_max=   1.8028     at=   3.2386n
             from=   1.8000n    to=   3.5000n

          ***** job concluded
 ******
 setup_sweep

 ****** transient analysis tnom=  25.000 temp=  25.000 ******
  *** parameter t_setup =    59.0000p       ***
  
 q_max=   1.8028     at=   3.2377n
             from=   1.8000n    to=   3.5000n

          ***** job concluded
 ******
 setup_sweep

 ****** transient analysis tnom=  25.000 temp=  25.000 ******
  *** parameter t_setup =    58.0000p       ***
  
 q_max=   1.8029     at=   3.2333n
             from=   1.8000n    to=   3.5000n

          ***** job concluded
 ******
 setup_sweep

 ****** transient analysis tnom=  25.000 temp=  25.000 ******
  *** parameter t_setup =    57.0000p       ***
  
 q_max=   1.8029     at=   3.2317n
             from=   1.8000n    to=   3.5000n

          ***** job concluded
 ******
 setup_sweep

 ****** transient analysis tnom=  25.000 temp=  25.000 ******
  *** parameter t_setup =    56.0000p       ***
  
 q_max=   1.8028     at=   3.2329n
             from=   1.8000n    to=   3.5000n

          ***** job concluded
 ******
 setup_sweep

 ****** transient analysis tnom=  25.000 temp=  25.000 ******
  *** parameter t_setup =    55.0000p       ***
  
 q_max=   1.8028     at=   3.2333n
             from=   1.8000n    to=   3.5000n

          ***** job concluded
 ******
 setup_sweep

 ****** transient analysis tnom=  25.000 temp=  25.000 ******
  *** parameter t_setup =    54.0000p       ***
  
 q_max=   1.8028     at=   3.2326n
             from=   1.8000n    to=   3.5000n

          ***** job concluded
 ******
 setup_sweep

 ****** transient analysis tnom=  25.000 temp=  25.000 ******
  *** parameter t_setup =    53.0000p       ***
  
 q_max=   1.8028     at=   3.2322n
             from=   1.8000n    to=   3.5000n

          ***** job concluded
 ******
 setup_sweep

 ****** transient analysis tnom=  25.000 temp=  25.000 ******
  *** parameter t_setup =    52.0000p       ***
  
 q_max=   1.8028     at=   3.2268n
             from=   1.8000n    to=   3.5000n

          ***** job concluded
 ******
 setup_sweep

 ****** transient analysis tnom=  25.000 temp=  25.000 ******
  *** parameter t_setup =    51.0000p       ***
  
 q_max=   1.8028     at=   3.2244n
             from=   1.8000n    to=   3.5000n

          ***** job concluded
 ******
 setup_sweep

 ****** transient analysis tnom=  25.000 temp=  25.000 ******
  *** parameter t_setup =    50.0000p       ***
  
 q_max=   1.8028     at=   3.2243n
             from=   1.8000n    to=   3.5000n

          ***** job concluded
 ******
 setup_sweep

 ****** transient analysis tnom=  25.000 temp=  25.000 ******
  *** parameter t_setup =    49.0000p       ***
  
 q_max=   1.8028     at=   3.2290n
             from=   1.8000n    to=   3.5000n

          ***** job concluded
 ******
 setup_sweep

 ****** transient analysis tnom=  25.000 temp=  25.000 ******
  *** parameter t_setup =    48.0000p       ***
  
 q_max=   1.8028     at=   3.2367n
             from=   1.8000n    to=   3.5000n

          ***** job concluded
 ******
 setup_sweep

 ****** transient analysis tnom=  25.000 temp=  25.000 ******
  *** parameter t_setup =    47.0000p       ***
  
 q_max=   1.8028     at=   3.2355n
             from=   1.8000n    to=   3.5000n

          ***** job concluded
 ******
 setup_sweep

 ****** transient analysis tnom=  25.000 temp=  25.000 ******
  *** parameter t_setup =    46.0000p       ***
  
 q_max=   1.8028     at=   3.2382n
             from=   1.8000n    to=   3.5000n

          ***** job concluded
 ******
 setup_sweep

 ****** transient analysis tnom=  25.000 temp=  25.000 ******
  *** parameter t_setup =    45.0000p       ***
  
 q_max=   1.8028     at=   3.2294n
             from=   1.8000n    to=   3.5000n

          ***** job concluded
 ******
 setup_sweep

 ****** transient analysis tnom=  25.000 temp=  25.000 ******
  *** parameter t_setup =    44.0000p       ***
  
 q_max=   1.8028     at=   3.2398n
             from=   1.8000n    to=   3.5000n

          ***** job concluded
 ******
 setup_sweep

 ****** transient analysis tnom=  25.000 temp=  25.000 ******
  *** parameter t_setup =    43.0000p       ***
  
 q_max=   1.8029     at=   3.2326n
             from=   1.8000n    to=   3.5000n

          ***** job concluded
 ******
 setup_sweep

 ****** transient analysis tnom=  25.000 temp=  25.000 ******
  *** parameter t_setup =    42.0000p       ***
  
 q_max=   1.8028     at=   3.2315n
             from=   1.8000n    to=   3.5000n

          ***** job concluded
 ******
 setup_sweep

 ****** transient analysis tnom=  25.000 temp=  25.000 ******
  *** parameter t_setup =    41.0000p       ***
  
 q_max=   1.8028     at=   3.2296n
             from=   1.8000n    to=   3.5000n

          ***** job concluded
 ******
 setup_sweep

 ****** transient analysis tnom=  25.000 temp=  25.000 ******
  *** parameter t_setup =    40.0000p       ***
  
 q_max=   1.8029     at=   3.2316n
             from=   1.8000n    to=   3.5000n

          ***** job concluded
 ******
 setup_sweep

 ****** transient analysis tnom=  25.000 temp=  25.000 ******
  *** parameter t_setup =    39.0000p       ***
  
 q_max=   1.8028     at=   3.2369n
             from=   1.8000n    to=   3.5000n

          ***** job concluded
 ******
 setup_sweep

 ****** transient analysis tnom=  25.000 temp=  25.000 ******
  *** parameter t_setup =    38.0000p       ***
  
 q_max=   1.8028     at=   3.2336n
             from=   1.8000n    to=   3.5000n

          ***** job concluded
 ******
 setup_sweep

 ****** transient analysis tnom=  25.000 temp=  25.000 ******
  *** parameter t_setup =    37.0000p       ***
  
 q_max=   1.8028     at=   3.2293n
             from=   1.8000n    to=   3.5000n

          ***** job concluded
 ******
 setup_sweep

 ****** transient analysis tnom=  25.000 temp=  25.000 ******
  *** parameter t_setup =    36.0000p       ***
  
 q_max=   1.8028     at=   3.2353n
             from=   1.8000n    to=   3.5000n

          ***** job concluded
 ******
 setup_sweep

 ****** transient analysis tnom=  25.000 temp=  25.000 ******
  *** parameter t_setup =    35.0000p       ***
  
 q_max=   1.8028     at=   3.2240n
             from=   1.8000n    to=   3.5000n

          ***** job concluded
 ******
 setup_sweep

 ****** transient analysis tnom=  25.000 temp=  25.000 ******
  *** parameter t_setup =    34.0000p       ***
  
 q_max=   1.8028     at=   3.2273n
             from=   1.8000n    to=   3.5000n

          ***** job concluded
 ******
 setup_sweep

 ****** transient analysis tnom=  25.000 temp=  25.000 ******
  *** parameter t_setup =    33.0000p       ***
  
 q_max=   1.8028     at=   3.2410n
             from=   1.8000n    to=   3.5000n

          ***** job concluded
 ******
 setup_sweep

 ****** transient analysis tnom=  25.000 temp=  25.000 ******
  *** parameter t_setup =    32.0000p       ***
  
 q_max=   1.8029     at=   3.2320n
             from=   1.8000n    to=   3.5000n

          ***** job concluded
 ******
 setup_sweep

 ****** transient analysis tnom=  25.000 temp=  25.000 ******
  *** parameter t_setup =    31.0000p       ***
  
 q_max=   1.8028     at=   3.2303n
             from=   1.8000n    to=   3.5000n

          ***** job concluded
 ******
 setup_sweep

 ****** transient analysis tnom=  25.000 temp=  25.000 ******
  *** parameter t_setup =    30.0000p       ***
  
 q_max=   1.8028     at=   3.2269n
             from=   1.8000n    to=   3.5000n

          ***** job concluded
 ******
 setup_sweep

 ****** transient analysis tnom=  25.000 temp=  25.000 ******
  *** parameter t_setup =    29.0000p       ***
  
 q_max=   1.8028     at=   3.2293n
             from=   1.8000n    to=   3.5000n

          ***** job concluded
 ******
 setup_sweep

 ****** transient analysis tnom=  25.000 temp=  25.000 ******
  *** parameter t_setup =    28.0000p       ***
  
 q_max=   1.8028     at=   3.2413n
             from=   1.8000n    to=   3.5000n

          ***** job concluded
 ******
 setup_sweep

 ****** transient analysis tnom=  25.000 temp=  25.000 ******
  *** parameter t_setup =    27.0000p       ***
  
 q_max=   1.8028     at=   3.2335n
             from=   1.8000n    to=   3.5000n

          ***** job concluded
 ******
 setup_sweep

 ****** transient analysis tnom=  25.000 temp=  25.000 ******
  *** parameter t_setup =    26.0000p       ***
  
 q_max=   1.8028     at=   3.2328n
             from=   1.8000n    to=   3.5000n

          ***** job concluded
 ******
 setup_sweep

 ****** transient analysis tnom=  25.000 temp=  25.000 ******
  *** parameter t_setup =    25.0000p       ***
  
 q_max=   1.8029     at=   3.2336n
             from=   1.8000n    to=   3.5000n

          ***** job concluded
 ******
 setup_sweep

 ****** transient analysis tnom=  25.000 temp=  25.000 ******
  *** parameter t_setup =    24.0000p       ***
  
 q_max=   1.8028     at=   3.2317n
             from=   1.8000n    to=   3.5000n

          ***** job concluded
 ******
 setup_sweep

 ****** transient analysis tnom=  25.000 temp=  25.000 ******
  *** parameter t_setup =    23.0000p       ***
  
 q_max=   1.8028     at=   3.2391n
             from=   1.8000n    to=   3.5000n

          ***** job concluded
 ******
 setup_sweep

 ****** transient analysis tnom=  25.000 temp=  25.000 ******
  *** parameter t_setup =    22.0000p       ***
  
 q_max=   1.8028     at=   3.2214n
             from=   1.8000n    to=   3.5000n

          ***** job concluded
 ******
 setup_sweep

 ****** transient analysis tnom=  25.000 temp=  25.000 ******
  *** parameter t_setup =    21.0000p       ***
  
 q_max=   1.8028     at=   3.2249n
             from=   1.8000n    to=   3.5000n

          ***** job concluded
 ******
 setup_sweep

 ****** transient analysis tnom=  25.000 temp=  25.000 ******
[...]
  *** parameter t_hold =   128.0000p       ***
  
 q_min= -33.6558u    at=   2.5978n
             from=   1.8000n    to=   3.5000n

          ***** job concluded
 ******
 hold_sweep

 ****** transient analysis tnom=  25.000 temp=  25.000 ******
  *** parameter t_hold =   129.0000p       ***
  
 q_min= -21.8070u    at=   2.5829n
             from=   1.8000n    to=   3.5000n

          ***** job concluded
 ******
 hold_sweep

 ****** transient analysis tnom=  25.000 temp=  25.000 ******
  *** parameter t_hold =   130.0000p       ***
  
 q_min= -37.7838u    at=   2.6405n
             from=   1.8000n    to=   3.5000n

          ***** job concluded
 ******
 hold_sweep

 ****** transient analysis tnom=  25.000 temp=  25.000 ******
  *** parameter t_hold =   131.0000p       ***
  
 q_min= -34.0317u    at=   2.6036n
             from=   1.8000n    to=   3.5000n

          ***** job concluded
 ******
 hold_sweep

 ****** transient analysis tnom=  25.000 temp=  25.000 ******
  *** parameter t_hold =   132.0000p       ***
  
 q_min= -31.4734u    at=   2.6004n
             from=   1.8000n    to=   3.5000n

          ***** job concluded
 ******
 hold_sweep

 ****** transient analysis tnom=  25.000 temp=  25.000 ******
  *** parameter t_hold =   133.0000p       ***
  
 q_min= -43.6978u    at=   2.6101n
             from=   1.8000n    to=   3.5000n

          ***** job concluded
 ******
 hold_sweep

 ****** transient analysis tnom=  25.000 temp=  25.000 ******
  *** parameter t_hold =   134.0000p       ***
  
 q_min= -33.0193u    at=   2.6519n
             from=   1.8000n    to=   3.5000n

          ***** job concluded
 ******
 hold_sweep

 ****** transient analysis tnom=  25.000 temp=  25.000 ******
  *** parameter t_hold =   135.0000p       ***
  
 q_min= -41.2996u    at=   2.6185n
             from=   1.8000n    to=   3.5000n

          ***** job concluded
 ******
 hold_sweep

 ****** transient analysis tnom=  25.000 temp=  25.000 ******
  *** parameter t_hold =   136.0000p       ***
  
 q_min= -41.1442u    at=   2.6153n
             from=   1.8000n    to=   3.5000n

          ***** job concluded
 ******
 hold_sweep

 ****** transient analysis tnom=  25.000 temp=  25.000 ******
  *** parameter t_hold =   137.0000p       ***
  
 q_min= -29.9365u    at=   2.6510n
             from=   1.8000n    to=   3.5000n

          ***** job concluded
 ******
 hold_sweep

 ****** transient analysis tnom=  25.000 temp=  25.000 ******
  *** parameter t_hold =   138.0000p       ***
  
 q_min= -32.1280u    at=   2.6519n
             from=   1.8000n    to=   3.5000n

          ***** job concluded
 ******
 hold_sweep

 ****** transient analysis tnom=  25.000 temp=  25.000 ******
  *** parameter t_hold =   139.0000p       ***
  
 q_min= -37.9860u    at=   2.6001n
             from=   1.8000n    to=   3.5000n

          ***** job concluded
 ******
 hold_sweep

 ****** transient analysis tnom=  25.000 temp=  25.000 ******
  *** parameter t_hold =   140.0000p       ***
  
 q_min= -31.2670u    at=   2.6438n
             from=   1.8000n    to=   3.5000n

          ***** job concluded
 ******
 hold_sweep

 ****** transient analysis tnom=  25.000 temp=  25.000 ******
  *** parameter t_hold =   141.0000p       ***
  
 q_min= -24.1748u    at=   2.6581n
             from=   1.8000n    to=   3.5000n

          ***** job concluded
 ******
 hold_sweep

 ****** transient analysis tnom=  25.000 temp=  25.000 ******
  *** parameter t_hold =   142.0000p       ***
  
 q_min= -43.0437u    at=   2.6109n
             from=   1.8000n    to=   3.5000n

          ***** job concluded
 ******
 hold_sweep

 ****** transient analysis tnom=  25.000 temp=  25.000 ******
  *** parameter t_hold =   143.0000p       ***
  
 q_min= -22.9572u    at=   2.6605n
             from=   1.8000n    to=   3.5000n

          ***** job concluded
 ******
 hold_sweep

 ****** transient analysis tnom=  25.000 temp=  25.000 ******
  *** parameter t_hold =   144.0000p       ***
  
 q_min= -24.8175u    at=   2.6381n
             from=   1.8000n    to=   3.5000n

          ***** job concluded
 ******
 hold_sweep

 ****** transient analysis tnom=  25.000 temp=  25.000 ******
  *** parameter t_hold =   145.0000p       ***
  
 q_min= -21.2687u    at=   2.6593n
             from=   1.8000n    to=   3.5000n

          ***** job concluded
 ******
 hold_sweep

 ****** transient analysis tnom=  25.000 temp=  25.000 ******
  *** parameter t_hold =   146.0000p       ***
  
 q_min= -20.8333u    at=   2.6603n
             from=   1.8000n    to=   3.5000n

          ***** job concluded
 ******
 hold_sweep

 ****** transient analysis tnom=  25.000 temp=  25.000 ******
  *** parameter t_hold =   147.0000p       ***
  
 q_min= -19.5885u    at=   2.6611n
             from=   1.8000n    to=   3.5000n

          ***** job concluded
 ******
 hold_sweep

 ****** transient analysis tnom=  25.000 temp=  25.000 ******
  *** parameter t_hold =   148.0000p       ***
  
 q_min= -24.3700u    at=   2.5955n
             from=   1.8000n    to=   3.5000n

          ***** job concluded
 ******
 hold_sweep

 ****** transient analysis tnom=  25.000 temp=  25.000 ******
  *** parameter t_hold =   149.0000p       ***
  
 q_min= -28.9924u    at=   2.6126n
             from=   1.8000n    to=   3.5000n

          ***** job concluded
 ******
 hold_sweep

 ****** transient analysis tnom=  25.000 temp=  25.000 ******
  *** parameter t_hold =   150.0000p       ***
  
 q_min= -26.1390u    at=   2.5838n
             from=   1.8000n    to=   3.5000n

          ***** job concluded
 ******
 hold_sweep

 ****** transient analysis tnom=  25.000 temp=  25.000 ******
  *** parameter t_hold =   151.0000p       ***
  
 q_min= -32.4451u    at=   2.5859n
             from=   1.8000n    to=   3.5000n

          ***** job concluded
 ******
 hold_sweep

 ****** transient analysis tnom=  25.000 temp=  25.000 ******
  *** parameter t_hold =   152.0000p       ***
  
 q_min= -39.1730u    at=   2.6273n
             from=   1.8000n    to=   3.5000n

          ***** job concluded
 ******
 hold_sweep

 ****** transient analysis tnom=  25.000 temp=  25.000 ******
  *** parameter t_hold =   153.0000p       ***
  
 q_min= -27.1779u    at=   2.6155n
             from=   1.8000n    to=   3.5000n

          ***** job concluded
 ******
 hold_sweep

 ****** transient analysis tnom=  25.000 temp=  25.000 ******
  *** parameter t_hold =   154.0000p       ***
  
 q_min= -40.6148u    at=   2.6204n
             from=   1.8000n    to=   3.5000n

          ***** job concluded
 ******
 hold_sweep

 ****** transient analysis tnom=  25.000 temp=  25.000 ******
  *** parameter t_hold =   155.0000p       ***
  
 q_min= -31.9913u    at=   2.5852n
             from=   1.8000n    to=   3.5000n

          ***** job concluded
 ******
 hold_sweep

 ****** transient analysis tnom=  25.000 temp=  25.000 ******
  *** parameter t_hold =   156.0000p       ***
  
 q_min= -30.4080u    at=   2.6024n
             from=   1.8000n    to=   3.5000n

          ***** job concluded
 ******
 hold_sweep

 ****** transient analysis tnom=  25.000 temp=  25.000 ******
  *** parameter t_hold =   157.0000p       ***
  
 q_min= -37.9212u    at=   2.5842n
             from=   1.8000n    to=   3.5000n

          ***** job concluded
 ******
 hold_sweep

 ****** transient analysis tnom=  25.000 temp=  25.000 ******
  *** parameter t_hold =   158.0000p       ***
  
 q_min= -38.2342u    at=   2.6245n
             from=   1.8000n    to=   3.5000n

          ***** job concluded
 ******
 hold_sweep

 ****** transient analysis tnom=  25.000 temp=  25.000 ******
  *** parameter t_hold =   159.0000p       ***
  
 q_min= -36.9897u    at=   2.6290n
             from=   1.8000n    to=   3.5000n

          ***** job concluded
 ******
 hold_sweep

 ****** transient analysis tnom=  25.000 temp=  25.000 ******
  *** parameter t_hold =   160.0000p       ***
  
 q_min= -27.6257u    at=   2.6519n
             from=   1.8000n    to=   3.5000n

          ***** job concluded
 ******
 hold_sweep

 ****** transient analysis tnom=  25.000 temp=  25.000 ******
  *** parameter t_hold =   161.0000p       ***
  
 q_min= -42.2701u    at=   2.6085n
             from=   1.8000n    to=   3.5000n

          ***** job concluded
 ******
 hold_sweep

 ****** transient analysis tnom=  25.000 temp=  25.000 ******
  *** parameter t_hold =   162.0000p       ***
  
 q_min= -38.6739u    at=   2.5944n
             from=   1.8000n    to=   3.5000n

          ***** job concluded
 ******
 hold_sweep

 ****** transient analysis tnom=  25.000 temp=  25.000 ******
  *** parameter t_hold =   163.0000p       ***
  
 q_min= -23.0925u    at=   2.6067n
             from=   1.8000n    to=   3.5000n

          ***** job concluded
 ******
 hold_sweep

 ****** transient analysis tnom=  25.000 temp=  25.000 ******
  *** parameter t_hold =   164.0000p       ***
  
 q_min= -24.6393u    at=   2.6200n
             from=   1.8000n    to=   3.5000n

          ***** job concluded
 ******
 hold_sweep

 ****** transient analysis tnom=  25.000 temp=  25.000 ******
  *** parameter t_hold =   165.0000p       ***
  
 q_min= -41.4372u    at=   2.5999n
             from=   1.8000n    to=   3.5000n

          ***** job concluded
 ******
 hold_sweep

 ****** transient analysis tnom=  25.000 temp=  25.000 ******
  *** parameter t_hold =   166.0000p       ***
  
 q_min= -39.9430u    at=   2.6089n
             from=   1.8000n    to=   3.5000n

          ***** job concluded
 ******
 hold_sweep

 ****** transient analysis tnom=  25.000 temp=  25.000 ******
  *** parameter t_hold =   167.0000p       ***
  
 q_min= -32.8887u    at=   2.5870n
             from=   1.8000n    to=   3.5000n

          ***** job concluded
 ******
 hold_sweep

 ****** transient analysis tnom=  25.000 temp=  25.000 ******
  *** parameter t_hold =   168.0000p       ***
  
 q_min= -26.8246u    at=   2.6276n
             from=   1.8000n    to=   3.5000n

          ***** job concluded
 ******
 hold_sweep

 ****** transient analysis tnom=  25.000 temp=  25.000 ******
  *** parameter t_hold =   169.0000p       ***
  
 q_min= -32.1102u    at=   2.6254n
             from=   1.8000n    to=   3.5000n

          ***** job concluded
 ******
 hold_sweep

 ****** transient analysis tnom=  25.000 temp=  25.000 ******
  *** parameter t_hold =   170.0000p       ***
  
 q_min= -34.0711u    at=   2.6247n
             from=   1.8000n    to=   3.5000n

          ***** job concluded
 ******
 hold_sweep

 ****** transient analysis tnom=  25.000 temp=  25.000 ******
  *** parameter t_hold =   171.0000p       ***
  
 q_min= -32.9434u    at=   2.6245n
             from=   1.8000n    to=   3.5000n

          ***** job concluded
 ******
 hold_sweep

 ****** transient analysis tnom=  25.000 temp=  25.000 ******
  *** parameter t_hold =   172.0000p       ***
  
 q_min= -25.5324u    at=   2.6269n
             from=   1.8000n    to=   3.5000n

          ***** job concluded
 ******
 hold_sweep

 ****** transient analysis tnom=  25.000 temp=  25.000 ******
  *** parameter t_hold =   173.0000p       ***
  
 q_min= -41.9439u    at=   2.6199n
             from=   1.8000n    to=   3.5000n

          ***** job concluded
 ******
 hold_sweep

 ****** transient analysis tnom=  25.000 temp=  25.000 ******
  *** parameter t_hold =   174.0000p       ***
  
 q_min= -24.6028u    at=   2.6196n
             from=   1.8000n    to=   3.5000n

          ***** job concluded
 ******
 hold_sweep

 ****** transient analysis tnom=  25.000 temp=  25.000 ******
  *** parameter t_hold =   175.0000p       ***
  
 q_min= -35.7473u    at=   2.5880n
             from=   1.8000n    to=   3.5000n

          ***** job concluded
 ******
 hold_sweep

 ****** transient analysis tnom=  25.000 temp=  25.000 ******
  *** parameter t_hold =   176.0000p       ***
  
 q_min= -31.7555u    at=   2.5843n
             from=   1.8000n    to=   3.5000n

          ***** job concluded
 ******
 hold_sweep

 ****** transient analysis tnom=  25.000 temp=  25.000 ******
  *** parameter t_hold =   177.0000p       ***
  
 q_min= -39.5286u    at=   2.6140n
             from=   1.8000n    to=   3.5000n

          ***** job concluded
 ******
 hold_sweep

 ****** transient analysis tnom=  25.000 temp=  25.000 ******
  *** parameter t_hold =   178.0000p       ***
  
 q_min= -42.3027u    at=   2.6011n
             from=   1.8000n    to=   3.5000n

          ***** job concluded
 ******
 hold_sweep

 ****** transient analysis tnom=  25.000 temp=  25.000 ******
  *** parameter t_hold =   179.0000p       ***
  
 q_min= -35.6218u    at=   2.6230n
             from=   1.8000n    to=   3.5000n

          ***** job concluded
 ******
 hold_sweep

 ****** transient analysis tnom=  25.000 temp=  25.000 ******
  *** parameter t_hold =   180.0000p       ***
  
 q_min= -37.3565u    at=   2.6181n
             from=   1.8000n    to=   3.5000n

          ***** job concluded
 ******
 hold_sweep

 ****** transient analysis tnom=  25.000 temp=  25.000 ******
  *** parameter t_hold =   181.0000p       ***
  
 q_min= -33.2303u    at=   2.6280n
             from=   1.8000n    to=   3.5000n

          ***** job concluded
 ******
 hold_sweep

 ****** transient analysis tnom=  25.000 temp=  25.000 ******
  *** parameter t_hold =   182.0000p       ***
  
 q_min= -38.9578u    at=   2.6162n
             from=   1.8000n    to=   3.5000n

          ***** job concluded
 ******
 hold_sweep

 ****** transient analysis tnom=  25.000 temp=  25.000 ******
  *** parameter t_hold =   183.0000p       ***
  
 q_min= -26.4470u    at=   2.6149n
             from=   1.8000n    to=   3.5000n

          ***** job concluded
 ******
 hold_sweep

 ****** transient analysis tnom=  25.000 temp=  25.000 ******
  *** parameter t_hold =   184.0000p       ***
  
 q_min= -35.5287u    at=   2.6202n
             from=   1.8000n    to=   3.5000n

          ***** job concluded
 ******
 hold_sweep

 ****** transient analysis tnom=  25.000 temp=  25.000 ******
  *** parameter t_hold =   185.0000p       ***
  
 q_min= -38.8974u    at=   2.6114n
             from=   1.8000n    to=   3.5000n

          ***** job concluded
 ******
 hold_sweep

 ****** transient analysis tnom=  25.000 temp=  25.000 ******
  *** parameter t_hold =   186.0000p       ***
  
 q_min= -42.8011u    at=   2.6023n
             from=   1.8000n    to=   3.5000n

          ***** job concluded
 ******
 hold_sweep

 ****** transient analysis tnom=  25.000 temp=  25.000 ******
  *** parameter t_hold =   187.0000p       ***
  
 q_min= -40.2309u    at=   2.6079n
             from=   1.8000n    to=   3.5000n

          ***** job concluded
 ******
 hold_sweep

 ****** transient analysis tnom=  25.000 temp=  25.000 ******
  *** parameter t_hold =   188.0000p       ***
  
 q_min= -40.3605u    at=   2.6108n
             from=   1.8000n    to=   3.5000n

          ***** job concluded
 ******
 hold_sweep

 ****** transient analysis tnom=  25.000 temp=  25.000 ******
  *** parameter t_hold =   189.0000p       ***
  
 q_min= -30.7397u    at=   2.5813n
             from=   1.8000n    to=   3.5000n

          ***** job concluded
 ******
 hold_sweep

 ****** transient analysis tnom=  25.000 temp=  25.000 ******
  *** parameter t_hold =   190.0000p       ***
  
 q_min= -30.4185u    at=   2.5794n
             from=   1.8000n    to=   3.5000n

          ***** job concluded
 ******
 hold_sweep

 ****** transient analysis tnom=  25.000 temp=  25.000 ******
  *** parameter t_hold =   191.0000p       ***
  
 q_min= -24.9603u    at=   2.5899n
             from=   1.8000n    to=   3.5000n

          ***** job concluded
 ******
 hold_sweep

 ****** transient analysis tnom=  25.000 temp=  25.000 ******
  *** parameter t_hold =   192.0000p       ***
  
 q_min= -40.2442u    at=   2.6013n
             from=   1.8000n    to=   3.5000n

          ***** job concluded
 ******
 hold_sweep

 ****** transient analysis tnom=  25.000 temp=  25.000 ******
  *** parameter t_hold =   193.0000p       ***
  
 q_min= -33.8923u    at=   2.6147n
             from=   1.8000n    to=   3.5000n

          ***** job concluded
 ******
 hold_sweep

 ****** transient analysis tnom=  25.000 temp=  25.000 ******
  *** parameter t_hold =   194.0000p       ***
  
 q_min= -37.6414u    at=   2.6069n
             from=   1.8000n    to=   3.5000n

          ***** job concluded
 ******
 hold_sweep

 ****** transient analysis tnom=  25.000 temp=  25.000 ******
  *** parameter t_hold =   195.0000p       ***
  
 q_min= -39.2128u    at=   2.6044n
             from=   1.8000n    to=   3.5000n

          ***** job concluded
 ******
 hold_sweep

 ****** transient analysis tnom=  25.000 temp=  25.000 ******
  *** parameter t_hold =   196.0000p       ***
  
 q_min= -29.5039u    at=   2.5864n
             from=   1.8000n    to=   3.5000n

          ***** job concluded
 ******
 hold_sweep

 ****** transient analysis tnom=  25.000 temp=  25.000 ******
  *** parameter t_hold =   197.0000p       ***
  
 q_min= -37.4649u    at=   2.6092n
             from=   1.8000n    to=   3.5000n

          ***** job concluded
 ******
 hold_sweep

 ****** transient analysis tnom=  25.000 temp=  25.000 ******
  *** parameter t_hold =   198.0000p       ***
  
 q_min= -38.2939u    at=   2.5892n
             from=   1.8000n    to=   3.5000n

          ***** job concluded
 ******
 hold_sweep

 ****** transient analysis tnom=  25.000 temp=  25.000 ******
  *** parameter t_hold =   199.0000p       ***
  
 q_min= -24.3243u    at=   2.5919n
             from=   1.8000n    to=   3.5000n

          ***** job concluded
 ******
 hold_sweep

 ****** transient analysis tnom=  25.000 temp=  25.000 ******
  *** parameter t_hold =   200.0000p       ***
  
 q_min= -36.8048u    at=   2.5870n
             from=   1.8000n    to=   3.5000n

          ***** job concluded
 ******  
 hold_sweep

 ****** job statistics summary tnom=  25.000 temp=  25.000 ******

  ******  Circuit Statistics  ******
  # nodes       =      50 # elements   =      22
  # resistors   =       0 # capacitors =       0 # inductors   =       0
  # mutual_inds =       0 # vccs       =       0 # vcvs        =       0
  # cccs        =       0 # ccvs       =       0 # volt_srcs   =       4
  # curr_srcs   =       0 # diodes     =       0 # bjts        =       0
  # jfets       =       0 # mosfets    =      18 # U elements  =       0
  # T elements  =       0 # W elements =       0 # B elements  =       0
  # S elements  =       0 # P elements =       0 # va device   =       0
  # vector_srcs =       0 # N elements =       0


  ******  Runtime Statistics (seconds)  ******

  analysis           time    # points   tot. iter  conv.iter
  op point           0.00           1           0
  transient         13.05        4001      923787      320811 rev=     43180
  readin             0.01
  errchk             0.00
  setup              0.00
  output             0.01


           peak memory used         72.77 megabytes
           total cpu time           13.30 seconds
           total elapsed time       13.33 seconds
           job started at     02:52:32 07/10/2026
           job ended   at     02:52:54 07/10/2026
           job total runtime        21.73 seconds


  lic: Release hspice token(s) 
 lic: total license checkout elapse time:        0.02(s)
