$DATA1 SOURCE='HSPICE' VERSION='P-2019.06-SP1-1 win64' PARAM_COUNT=1
.TITLE 'setup_sweep'
 t_setup          q_max            temper           alter#          
  3.000e-10          1.8241          25.0000        3               
  2.990e-10          1.8242          25.0000        3               
  2.980e-10          1.8241          25.0000        3               
  2.970e-10          1.8237          25.0000        3               
  2.960e-10          1.8238          25.0000        3               
  2.950e-10          1.8242          25.0000        3               
  2.940e-10          1.8241          25.0000        3               
  2.930e-10          1.8241          25.0000        3               
  2.920e-10          1.8237          25.0000        3               
  2.910e-10          1.8239          25.0000        3               
  2.900e-10          1.8241          25.0000        3               
  2.890e-10          1.8237          25.0000        3               
  2.880e-10          1.8238          25.0000        3               
  2.870e-10          1.8237          25.0000        3               
  2.860e-10          1.8240          25.0000        3               
  2.850e-10          1.8236          25.0000        3               
  2.840e-10          1.8237          25.0000        3               
  2.830e-10          1.8242          25.0000        3               
  2.820e-10          1.8238          25.0000        3               
  2.810e-10          1.8241          25.0000        3               
  2.800e-10          1.8237          25.0000        3               
  2.790e-10          1.8237          25.0000        3               
  2.780e-10          1.8237          25.0000        3               
  2.770e-10          1.8237          25.0000        3               
  2.760e-10          1.8242          25.0000        3               
  2.750e-10          1.8240          25.0000        3               
  2.740e-10          1.8236          25.0000        3               
  2.730e-10          1.8239          25.0000        3               
  2.720e-10          1.8239          25.0000        3               
  2.710e-10          1.8237          25.0000        3               
  2.700e-10          1.8237          25.0000        3               
  2.690e-10          1.8237          25.0000        3               
  2.680e-10          1.8237          25.0000        3               
  2.670e-10          1.8240          25.0000        3               
  2.660e-10          1.8237          25.0000        3               
  2.650e-10          1.8237          25.0000        3               
  2.640e-10          1.8238          25.0000        3               
  2.630e-10          1.8238          25.0000        3               
  2.620e-10          1.8238          25.0000        3               
  2.610e-10          1.8237          25.0000        3               
  2.600e-10          1.8237          25.0000        3               
  2.590e-10          1.8241          25.0000        3               
  2.580e-10          1.8237          25.0000        3               
  2.570e-10          1.8237          25.0000        3               
  2.560e-10          1.8237          25.0000        3               
  2.550e-10          1.8237          25.0000        3               
  2.540e-10          1.8240          25.0000        3               
  2.530e-10          1.8241          25.0000        3               
  2.520e-10          1.8237          25.0000        3               
  2.510e-10          1.8240          25.0000        3               
  2.500e-10          1.8237          25.0000        3               
  2.490e-10          1.8237          25.0000        3               
  2.480e-10          1.8240          25.0000        3               
  2.470e-10          1.8240          25.0000        3               
  2.460e-10          1.8236          25.0000        3               
  2.450e-10          1.8240          25.0000        3               
  2.440e-10          1.8237          25.0000        3               
  2.430e-10          1.8237          25.0000        3               
  2.420e-10          1.8239          25.0000        3               
  2.410e-10          1.8237          25.0000        3               
  2.400e-10          1.8237          25.0000        3               
  2.390e-10          1.8242          25.0000        3               
  2.380e-10          1.8239          25.0000        3               
  2.370e-10          1.8237          25.0000        3               
  2.360e-10          1.8237          25.0000        3               
  2.350e-10          1.8237          25.0000        3               
  2.340e-10          1.8239          25.0000        3               
  2.330e-10          1.8237          25.0000        3               
  2.320e-10          1.8237          25.0000        3               
  2.310e-10          1.8237          25.0000        3               
  2.300e-10          1.8237          25.0000        3               
  2.290e-10          1.8238          25.0000        3               
  2.280e-10          1.8235          25.0000        3               
  2.270e-10          1.8237          25.0000        3               
  2.260e-10          1.8238          25.0000        3               
  2.250e-10          1.8235          25.0000        3               
  2.240e-10          1.8238          25.0000        3               
  2.230e-10          1.8239          25.0000        3               
  2.220e-10          1.8241          25.0000        3               
  2.210e-10          1.8236          25.0000        3               
  2.200e-10          1.8236          25.0000        3               
  2.190e-10          1.8235          25.0000        3               
  2.180e-10          1.8240          25.0000        3               
  2.170e-10          1.8241          25.0000        3               
  2.160e-10          1.8241          25.0000        3               
  2.150e-10          1.8236          25.0000        3               
  2.140e-10          1.8238          25.0000        3               
  2.130e-10          1.8237          25.0000        3               
  2.120e-10          1.8234          25.0000        3               
  2.110e-10          1.8235          25.0000        3               
  2.100e-10          1.8235          25.0000        3               
  2.090e-10          1.8235          25.0000        3               
  2.080e-10          1.8234          25.0000        3               
  2.070e-10          1.8235          25.0000        3               
  2.060e-10          1.8236          25.0000        3               
  2.050e-10          1.8235          25.0000        3               
  2.040e-10          1.8234          25.0000        3               
  2.030e-10          1.8233          25.0000        3               
  2.020e-10          1.8235          25.0000        3               
  2.010e-10          1.8233          25.0000        3               
  2.000e-10          1.8238          25.0000        3               
  1.990e-10          1.8232          25.0000        3               
  1.980e-10          1.8232          25.0000        3               
  1.970e-10          1.8231          25.0000        3               
  1.960e-10          1.8231          25.0000        3               
  1.950e-10          1.8236          25.0000        3               
  1.940e-10          1.8236          25.0000        3               
  1.930e-10          1.8230          25.0000        3               
  1.920e-10          1.8235          25.0000        3               
  1.910e-10          1.8230          25.0000        3               
  1.900e-10          1.8234          25.0000        3               
  1.890e-10          1.8233          25.0000        3               
  1.880e-10          1.8228          25.0000        3               
  1.870e-10          1.8227          25.0000        3               
  1.860e-10          1.8226          25.0000        3               
  1.850e-10          1.8229          25.0000        3               
  1.840e-10          1.8231          25.0000        3               
  1.830e-10          1.8224          25.0000        3               
  1.820e-10          1.8223          25.0000        3               
  1.810e-10          1.8226          25.0000        3               
  1.800e-10          1.8227          25.0000        3               
  1.790e-10          1.8226          25.0000        3               
  1.780e-10          1.8222          25.0000        3               
  1.770e-10          1.8223          25.0000        3               
  1.760e-10          1.8223          25.0000        3               
  1.750e-10          1.8221          25.0000        3               
  1.740e-10          1.8218          25.0000        3               
  1.730e-10          1.8217          25.0000        3               
  1.720e-10          1.8218          25.0000        3               
  1.710e-10          1.8216          25.0000        3               
  1.700e-10          1.8213          25.0000        3               
  1.690e-10          1.8212          25.0000        3               
  1.680e-10          1.8209          25.0000        3               
  1.670e-10          1.8205          25.0000        3               
  1.660e-10          1.8206          25.0000        3               
  1.650e-10          1.8199          25.0000        3               
  1.640e-10          1.8199          25.0000        3               
  1.630e-10          1.8197          25.0000        3               
  1.620e-10          1.8192          25.0000        3               
  1.610e-10          1.8193          25.0000        3               
  1.600e-10          1.8187          25.0000        3               
  1.590e-10          1.8185          25.0000        3               
  1.580e-10          1.8182          25.0000        3               
  1.570e-10          1.8175          25.0000        3               
  1.560e-10          1.8167          25.0000        3               
  1.550e-10          1.8164          25.0000        3               
  1.540e-10          1.8166          25.0000        3               
  1.530e-10          1.8158          25.0000        3               
  1.520e-10          1.8151          25.0000        3               
  1.510e-10          1.8150          25.0000        3               
  1.500e-10          1.8141          25.0000        3               
  1.490e-10          1.8138          25.0000        3               
  1.480e-10          1.8130          25.0000        3               
  1.470e-10          1.8119          25.0000        3               
  1.460e-10          1.8111          25.0000        3               
  1.450e-10          1.8104          25.0000        3               
  1.440e-10          1.8097          25.0000        3               
  1.430e-10          1.8092          25.0000        3               
  1.420e-10          1.8085          25.0000        3               
  1.410e-10          1.8075          25.0000        3               
  1.400e-10          1.8065          25.0000        3               
  1.390e-10          1.8052          25.0000        3               
  1.380e-10          1.8043          25.0000        3               
  1.370e-10          1.8033          25.0000        3               
  1.360e-10          1.8026          25.0000        3               
  1.350e-10          1.8014          25.0000        3               
  1.340e-10          1.8002          25.0000        3               
  1.330e-10          1.7998          25.0000        3               
  1.320e-10          1.7998          25.0000        3               
  1.310e-10          1.7998          25.0000        3               
  1.300e-10          1.7998          25.0000        3               
  1.290e-10          1.7998          25.0000        3               
  1.280e-10          1.7998          25.0000        3               
  1.270e-10          1.7998          25.0000        3               
  1.260e-10          1.7998          25.0000        3               
  1.250e-10          1.7998          25.0000        3               
  1.240e-10          1.7998          25.0000        3               
  1.230e-10          1.7998          25.0000        3               
  1.220e-10          1.7998          25.0000        3               
  1.210e-10          1.7998          25.0000        3               
  1.200e-10          1.7998          25.0000        3               
  1.190e-10          1.7998          25.0000        3               
  1.180e-10          1.7998          25.0000        3               
  1.170e-10          1.7998          25.0000        3               
  1.160e-10          1.7998          25.0000        3               
  1.150e-10          1.7998          25.0000        3               
  1.140e-10          1.7998          25.0000        3               
  1.130e-10          1.7998          25.0000        3               
  1.120e-10          1.7998          25.0000        3               
  1.110e-10          1.7998          25.0000        3               
  1.100e-10          1.7998          25.0000        3               
  1.090e-10          1.7998          25.0000        3               
  1.080e-10          1.7998          25.0000        3               
  1.070e-10          1.7998          25.0000        3               
  1.060e-10          1.7998          25.0000        3               
  1.050e-10          1.7998          25.0000        3               
  1.040e-10          1.7998          25.0000        3               
  1.030e-10          1.7998          25.0000        3               
  1.020e-10          1.7998          25.0000        3               
  1.010e-10          1.7998          25.0000        3               
  1.000e-10          1.7998          25.0000        3               
  9.900e-11          1.7998          25.0000        3               
  9.800e-11          1.7998          25.0000        3               
  9.700e-11          1.7998          25.0000        3               
  9.600e-11          1.7998          25.0000        3               
  9.500e-11          1.7998          25.0000        3               
  9.400e-11          1.7998          25.0000        3               
  9.300e-11          1.7998          25.0000        3               
  9.200e-11          1.7998          25.0000        3               
  9.100e-11          1.7998          25.0000        3               
  9.000e-11          1.7998          25.0000        3               
  8.900e-11          1.7998          25.0000        3               
  8.800e-11          1.7998          25.0000        3               
  8.700e-11          1.7998          25.0000        3               
  8.600e-11          1.7998          25.0000        3               
  8.500e-11          1.7998          25.0000        3               
  8.400e-11          1.7998          25.0000        3               
  8.300e-11          1.7998          25.0000        3               
  8.200e-11          1.7998          25.0000        3               
  8.100e-11          1.7998          25.0000        3               
  8.000e-11          1.7998          25.0000        3               
  7.900e-11          1.7998          25.0000        3               
  7.800e-11          1.7998          25.0000        3               
  7.700e-11          1.7998          25.0000        3               
  7.600e-11          1.7998          25.0000        3               
  7.500e-11          1.7998          25.0000        3               
  7.400e-11          1.7998          25.0000        3               
  7.300e-11          1.7998          25.0000        3               
  7.200e-11          1.7998          25.0000        3               
  7.100e-11          1.7998          25.0000        3               
  7.000e-11          1.7998          25.0000        3               
  6.900e-11          1.7998          25.0000        3               
  6.800e-11          1.7998          25.0000        3               
  6.700e-11          1.7998          25.0000        3               
  6.600e-11          1.7998          25.0000        3               
  6.500e-11          1.7998          25.0000        3               
  6.400e-11          1.7998          25.0000        3               
  6.300e-11          1.7998          25.0000        3               
  6.200e-11          1.7998          25.0000        3               
  6.100e-11          1.7998          25.0000        3               
  6.000e-11          1.7998          25.0000        3               
  5.900e-11          1.7998          25.0000        3               
  5.800e-11          1.7998          25.0000        3               
  5.700e-11          1.7998          25.0000        3               
  5.600e-11          1.7998          25.0000        3               
  5.500e-11          1.1699          25.0000        3               
  5.400e-11          1.1449          25.0000        3               
  5.300e-11          1.1195          25.0000        3               
  5.200e-11          1.0931          25.0000        3               
  5.100e-11          1.0667          25.0000        3               
  5.000e-11          1.0391          25.0000        3               
  4.900e-11          1.0103          25.0000        3               
  4.800e-11          0.9800          25.0000        3               
  4.700e-11          0.9478          25.0000        3               
  4.600e-11          0.9143          25.0000        3               
  4.500e-11          0.8792          25.0000        3               
  4.400e-11          0.8424          25.0000        3               
  4.300e-11          0.8036          25.0000        3               
  4.200e-11          0.7639          25.0000        3               
  4.100e-11          0.7243          25.0000        3               
  4.000e-11          0.6809          25.0000        3               
  3.900e-11          0.6373          25.0000        3               
  3.800e-11          0.5930          25.0000        3               
  3.700e-11          0.5455          25.0000        3               
  3.600e-11          0.4939          25.0000        3               
  3.500e-11          0.4411          25.0000        3               
  3.400e-11          0.3896          25.0000        3               
  3.300e-11          0.3392          25.0000        3               
  3.200e-11          0.2903          25.0000        3               
  3.100e-11          0.2436          25.0000        3               
  3.000e-11          0.2039          25.0000        3               
  2.900e-11          0.1719          25.0000        3               
  2.800e-11          0.1462          25.0000        3               
  2.700e-11          0.1249          25.0000        3               
  2.600e-11          0.1068          25.0000        3               
  2.500e-11        9.285e-02         25.0000        3               
  2.400e-11        8.033e-02         25.0000        3               
  2.300e-11        6.985e-02         25.0000        3               
  2.200e-11        6.045e-02         25.0000        3               
  2.100e-11        5.236e-02         25.0000        3               
  2.000e-11        4.537e-02         25.0000        3               
  1.900e-11        3.961e-02         25.0000        3               
  1.800e-11        3.536e-02         25.0000        3               
  1.700e-11        3.206e-02         25.0000        3               
  1.600e-11        2.928e-02         25.0000        3               
  1.500e-11        2.711e-02         25.0000        3               
  1.400e-11        2.520e-02         25.0000        3               
  1.300e-11        2.360e-02         25.0000        3               
  1.200e-11        2.211e-02         25.0000        3               
  1.100e-11        2.085e-02         25.0000        3               
  1.000e-11        1.969e-02         25.0000        3               
  1.100e-11        2.085e-02         25.0000        3               
  1.200e-11        2.211e-02         25.0000        3               
  1.300e-11        2.360e-02         25.0000        3               
  1.400e-11        2.520e-02         25.0000        3               
  1.500e-11        2.711e-02         25.0000        3               
  1.600e-11        2.928e-02         25.0000        3               
  1.700e-11        3.206e-02         25.0000        3               
  1.800e-11        3.536e-02         25.0000        3               
  1.900e-11        3.961e-02         25.0000        3               
  2.000e-11        4.537e-02         25.0000        3               
  2.100e-11        5.236e-02         25.0000        3               
  2.200e-11        6.045e-02         25.0000        3               
  2.300e-11        6.985e-02         25.0000        3               
  2.400e-11        8.033e-02         25.0000        3               
  2.500e-11        9.285e-02         25.0000        3               
  2.600e-11          0.1068          25.0000        3               
  2.700e-11          0.1249          25.0000        3               
  2.800e-11          0.1462          25.0000        3               
  2.900e-11          0.1719          25.0000        3               
  3.000e-11          0.2039          25.0000        3               
  3.100e-11          0.2436          25.0000        3               
  3.200e-11          0.2903          25.0000        3               
  3.300e-11          0.3392          25.0000        3               
  3.400e-11          0.3896          25.0000        3               
  3.500e-11          0.4411          25.0000        3               
  3.600e-11          0.4939          25.0000        3               
  3.700e-11          0.5455          25.0000        3               
  3.800e-11          0.5930          25.0000        3               
  3.900e-11          0.6373          25.0000        3               
  4.000e-11          0.6809          25.0000        3               
  4.100e-11          0.7243          25.0000        3               
  4.200e-11          0.7639          25.0000        3               
  4.300e-11          0.8036          25.0000        3               
  4.400e-11          0.8424          25.0000        3               
  4.500e-11          0.8792          25.0000        3               
  4.600e-11          0.9143          25.0000        3               
  4.700e-11          0.9478          25.0000        3               
  4.800e-11          0.9800          25.0000        3               
  4.900e-11          1.0103          25.0000        3               
  5.000e-11          1.0391          25.0000        3               
  5.100e-11          1.0667          25.0000        3               
  5.200e-11          1.0931          25.0000        3               
  5.300e-11          1.1195          25.0000        3               
  5.400e-11          1.1449          25.0000        3               
  5.500e-11          1.1699          25.0000        3               
  5.600e-11          1.7998          25.0000        3               
  5.700e-11          1.7998          25.0000        3               
  5.800e-11          1.7998          25.0000        3               
  5.900e-11          1.7998          25.0000        3               
  6.000e-11          1.7998          25.0000        3               
  6.100e-11          1.7998          25.0000        3               
  6.200e-11          1.7998          25.0000        3               
  6.300e-11          1.7998          25.0000        3               
  6.400e-11          1.7998          25.0000        3               
  6.500e-11          1.7998          25.0000        3               
  6.600e-11          1.7998          25.0000        3               
  6.700e-11          1.7998          25.0000        3               
  6.800e-11          1.7998          25.0000        3               
  6.900e-11          1.7998          25.0000        3               
  7.000e-11          1.7998          25.0000        3               
  7.100e-11          1.7998          25.0000        3               
  7.200e-11          1.7998          25.0000        3               
  7.300e-11          1.7998          25.0000        3               
  7.400e-11          1.7998          25.0000        3               
  7.500e-11          1.7998          25.0000        3               
  7.600e-11          1.7998          25.0000        3               
  7.700e-11          1.7998          25.0000        3               
  7.800e-11          1.7998          25.0000        3               
  7.900e-11          1.7998          25.0000        3               
  8.000e-11          1.7998          25.0000        3               
  8.100e-11          1.7998          25.0000        3               
  8.200e-11          1.7998          25.0000        3               
  8.300e-11          1.7998          25.0000        3               
  8.400e-11          1.7998          25.0000        3               
  8.500e-11          1.7998          25.0000        3               
  8.600e-11          1.7998          25.0000        3               
  8.700e-11          1.7998          25.0000        3               
  8.800e-11          1.7998          25.0000        3               
  8.900e-11          1.7998          25.0000        3               
  9.000e-11          1.7998          25.0000        3               
  9.100e-11          1.7998          25.0000        3               
  9.200e-11          1.7998          25.0000        3               
  9.300e-11          1.7998          25.0000        3               
  9.400e-11          1.7998          25.0000        3               
  9.500e-11          1.7998          25.0000        3               
  9.600e-11          1.7998          25.0000        3               
  9.700e-11          1.7998          25.0000        3               
  9.800e-11          1.7998          25.0000        3               
  9.900e-11          1.7998          25.0000        3               
  1.000e-10          1.7998          25.0000        3               
  1.010e-10          1.7998          25.0000        3               
  1.020e-10          1.7998          25.0000        3               
  1.030e-10          1.7998          25.0000        3               
  1.040e-10          1.7998          25.0000        3               
  1.050e-10          1.7998          25.0000        3               
  1.060e-10          1.7998          25.0000        3               
  1.070e-10          1.7998          25.0000        3               
  1.080e-10          1.7998          25.0000        3               
  1.090e-10          1.7998          25.0000        3               
  1.100e-10          1.7998          25.0000        3               
  1.110e-10          1.7998          25.0000        3               
  1.120e-10          1.7998          25.0000        3               
  1.130e-10          1.7998          25.0000        3               
  1.140e-10          1.7998          25.0000        3               
  1.150e-10          1.7998          25.0000        3               
  1.160e-10          1.7998          25.0000        3               
  1.170e-10          1.7998          25.0000        3               
  1.180e-10          1.7998          25.0000        3               
  1.190e-10          1.7998          25.0000        3               
  1.200e-10          1.7998          25.0000        3               
  1.210e-10          1.7998          25.0000        3               
  1.220e-10          1.7998          25.0000        3               
  1.230e-10          1.7998          25.0000        3               
  1.240e-10          1.7998          25.0000        3               
  1.250e-10          1.7998          25.0000        3               
  1.260e-10          1.7998          25.0000        3               
  1.270e-10          1.7998          25.0000        3               
  1.280e-10          1.7998          25.0000        3               
  1.290e-10          1.7998          25.0000        3               
  1.300e-10          1.7998          25.0000        3               
  1.310e-10          1.7998          25.0000        3               
  1.320e-10          1.7998          25.0000        3               
  1.330e-10          1.7998          25.0000        3               
  1.340e-10          1.8002          25.0000        3               
  1.350e-10          1.8014          25.0000        3               
  1.360e-10          1.8026          25.0000        3               
  1.370e-10          1.8033          25.0000        3               
  1.380e-10          1.8043          25.0000        3               
  1.390e-10          1.8052          25.0000        3               
  1.400e-10          1.8065          25.0000        3               
  1.410e-10          1.8075          25.0000        3               
  1.420e-10          1.8085          25.0000        3               
  1.430e-10          1.8092          25.0000        3               
  1.440e-10          1.8097          25.0000        3               
  1.450e-10          1.8104          25.0000        3               
  1.460e-10          1.8111          25.0000        3               
  1.470e-10          1.8119          25.0000        3               
  1.480e-10          1.8130          25.0000        3               
  1.490e-10          1.8138          25.0000        3               
  1.500e-10          1.8141          25.0000        3               
  1.510e-10          1.8150          25.0000        3               
  1.520e-10          1.8151          25.0000        3               
  1.530e-10          1.8158          25.0000        3               
  1.540e-10          1.8166          25.0000        3               
  1.550e-10          1.8164          25.0000        3               
  1.560e-10          1.8167          25.0000        3               
  1.570e-10          1.8175          25.0000        3               
  1.580e-10          1.8182          25.0000        3               
  1.590e-10          1.8185          25.0000        3               
  1.600e-10          1.8187          25.0000        3               
  1.610e-10          1.8193          25.0000        3               
  1.620e-10          1.8192          25.0000        3               
  1.630e-10          1.8197          25.0000        3               
  1.640e-10          1.8199          25.0000        3               
  1.650e-10          1.8199          25.0000        3               
  1.660e-10          1.8206          25.0000        3               
  1.670e-10          1.8205          25.0000        3               
  1.680e-10          1.8209          25.0000        3               
  1.690e-10          1.8212          25.0000        3               
  1.700e-10          1.8213          25.0000        3               
  1.710e-10          1.8216          25.0000        3               
  1.720e-10          1.8218          25.0000        3               
  1.730e-10          1.8217          25.0000        3               
  1.740e-10          1.8218          25.0000        3               
  1.750e-10          1.8221          25.0000        3               
  1.760e-10          1.8223          25.0000        3               
  1.770e-10          1.8223          25.0000        3               
  1.780e-10          1.8222          25.0000        3               
  1.790e-10          1.8226          25.0000        3               
  1.800e-10          1.8227          25.0000        3               
  1.810e-10          1.8226          25.0000        3               
  1.820e-10          1.8223          25.0000        3               
  1.830e-10          1.8224          25.0000        3               
  1.840e-10          1.8231          25.0000        3               
  1.850e-10          1.8229          25.0000        3               
  1.860e-10          1.8226          25.0000        3               
  1.870e-10          1.8227          25.0000        3               
  1.880e-10          1.8228          25.0000        3               
  1.890e-10          1.8233          25.0000        3               
  1.900e-10          1.8234          25.0000        3               
  1.910e-10          1.8230          25.0000        3               
  1.920e-10          1.8235          25.0000        3               
  1.930e-10          1.8230          25.0000        3               
  1.940e-10          1.8236          25.0000        3               
  1.950e-10          1.8236          25.0000        3               
  1.960e-10          1.8231          25.0000        3               
  1.970e-10          1.8231          25.0000        3               
  1.980e-10          1.8232          25.0000        3               
  1.990e-10          1.8232          25.0000        3               
  2.000e-10          1.8238          25.0000        3               
  2.010e-10          1.8233          25.0000        3               
  2.020e-10          1.8235          25.0000        3               
  2.030e-10          1.8233          25.0000        3               
  2.040e-10          1.8234          25.0000        3               
  2.050e-10          1.8235          25.0000        3               
  2.060e-10          1.8236          25.0000        3               
  2.070e-10          1.8235          25.0000        3               
  2.080e-10          1.8234          25.0000        3               
  2.090e-10          1.8235          25.0000        3               
  2.100e-10          1.8235          25.0000        3               
  2.110e-10          1.8235          25.0000        3               
  2.120e-10          1.8234          25.0000        3               
  2.130e-10          1.8237          25.0000        3               
  2.140e-10          1.8238          25.0000        3               
  2.150e-10          1.8236          25.0000        3               
  2.160e-10          1.8241          25.0000        3               
  2.170e-10          1.8241          25.0000        3               
  2.180e-10          1.8240          25.0000        3               
  2.190e-10          1.8235          25.0000        3               
  2.200e-10          1.8236          25.0000        3               
  2.210e-10          1.8236          25.0000        3               
  2.220e-10          1.8241          25.0000        3               
  2.230e-10          1.8239          25.0000        3               
  2.240e-10          1.8238          25.0000        3               
  2.250e-10          1.8235          25.0000        3               
  2.260e-10          1.8238          25.0000        3               
  2.270e-10          1.8237          25.0000        3               
  2.280e-10          1.8235          25.0000        3               
  2.290e-10          1.8238          25.0000        3               
  2.300e-10          1.8237          25.0000        3               
  2.310e-10          1.8237          25.0000        3               
  2.320e-10          1.8237          25.0000        3               
  2.330e-10          1.8237          25.0000        3               
  2.340e-10          1.8239          25.0000        3               
  2.350e-10          1.8237          25.0000        3               
  2.360e-10          1.8237          25.0000        3               
  2.370e-10          1.8237          25.0000        3               
  2.380e-10          1.8239          25.0000        3               
  2.390e-10          1.8242          25.0000        3               
  2.400e-10          1.8237          25.0000        3               
  2.410e-10          1.8237          25.0000        3               
  2.420e-10          1.8239          25.0000        3               
  2.430e-10          1.8237          25.0000        3               
  2.440e-10          1.8237          25.0000        3               
  2.450e-10          1.8240          25.0000        3               
  2.460e-10          1.8236          25.0000        3               
  2.470e-10          1.8240          25.0000        3               
  2.480e-10          1.8240          25.0000        3               
  2.490e-10          1.8237          25.0000        3               
  2.500e-10          1.8237          25.0000        3               
  2.510e-10          1.8240          25.0000        3               
  2.520e-10          1.8237          25.0000        3               
  2.530e-10          1.8241          25.0000        3               
  2.540e-10          1.8240          25.0000        3               
  2.550e-10          1.8237          25.0000        3               
  2.560e-10          1.8237          25.0000        3               
  2.570e-10          1.8237          25.0000        3               
  2.580e-10          1.8237          25.0000        3               
  2.590e-10          1.8241          25.0000        3               
  2.600e-10          1.8237          25.0000        3               
  2.610e-10          1.8237          25.0000        3               
  2.620e-10          1.8238          25.0000        3               
  2.630e-10          1.8238          25.0000        3               
  2.640e-10          1.8238          25.0000        3               
  2.650e-10          1.8237          25.0000        3               
  2.660e-10          1.8237          25.0000        3               
  2.670e-10          1.8240          25.0000        3               
  2.680e-10          1.8237          25.0000        3               
  2.690e-10          1.8237          25.0000        3               
  2.700e-10          1.8237          25.0000        3               
  2.710e-10          1.8237          25.0000        3               
  2.720e-10          1.8239          25.0000        3               
  2.730e-10          1.8239          25.0000        3               
  2.740e-10          1.8236          25.0000        3               
  2.750e-10          1.8240          25.0000        3               
  2.760e-10          1.8242          25.0000        3               
  2.770e-10          1.8237          25.0000        3               
  2.780e-10          1.8237          25.0000        3               
  2.790e-10          1.8237          25.0000        3               
  2.800e-10          1.8237          25.0000        3               
  2.810e-10          1.8241          25.0000        3               
  2.820e-10          1.8238          25.0000        3               
  2.830e-10          1.8242          25.0000        3               
  2.840e-10          1.8237          25.0000        3               
  2.850e-10          1.8236          25.0000        3               
  2.860e-10          1.8240          25.0000        3               
  2.870e-10          1.8237          25.0000        3               
  2.880e-10          1.8238          25.0000        3               
  2.890e-10          1.8237          25.0000        3               
  2.900e-10          1.8241          25.0000        3               
  2.910e-10          1.8239          25.0000        3               
  2.920e-10          1.8237          25.0000        3               
  2.930e-10          1.8241          25.0000        3               
  2.940e-10          1.8241          25.0000        3               
  2.950e-10          1.8242          25.0000        3               
  2.960e-10          1.8238          25.0000        3               
  2.970e-10          1.8237          25.0000        3               
  2.980e-10          1.8241          25.0000        3               
  2.990e-10          1.8242          25.0000        3               
  3.000e-10          1.8241          25.0000        3               
