 ****** HSPICE -- P-2019.06-SP1-1 win64 (Sep 27 2019) ******                    
  Copyright (c) 1986 - 2026 by Synopsys, Inc. All Rights Reserved.              
  This software and the associated documentation are proprietary
  to Synopsys, Inc. This software may only be used in accordance
  with the terms and conditions of a written license agreement with
  Synopsys, Inc. All other use, reproduction, or distribution of
  this software is strictly prohibited.
  Input File: sim.sp                                                            
  Command line options: C:\synopsys\Hspice_P-2019.06-SP1-1\WIN64\hspice.com -i sim.sp -o D:\UT.CE\Term-06\AVLSI\CA\CA04\simulation\seq-elements\D-Latch\delay\sim.lis
  Start time: Sat Jul 11 05:07:43 2026
  lic:  
  lic: FLEXlm: SDK_12.3 
  lic: USER:   Mohammad-Khohsroo    HOSTNAME: DESKTOP-GMQQFUO 
  lic: HOSTID: "088fc3e7a24d"       PID:      22564 
  lic: Using FLEXlm license file: 
  lic: 27000@DESKTOP-GMQQFUO 
  lic: Checkout 1 hspice 
  lic: License/Maintenance for hspice will expire on 30-dec-2030/2020.12 
  lic: 1(in_use)/99(total) FLOATING license(s) on SERVER 27000@DESKTOP-GMQQFUO 
  lic:   
1****** HSPICE -- P-2019.06-SP1-1 win64 (Sep 27 2019) ******                    
 ******  
 ********************* hspice fa gates modeling **********************

 ****** circuit name directory
 circuit number to circuit name directory
   number circuitname                     definition         multiplier
        0 main circuit
        1 xcircuit.                       d_latch_nn         1.00 
        2 xcircuit.xinv_d.                inv                1.00 
        3 xcircuit.xnand1.                nand2              1.00 
        4 xcircuit.xnand2.                nand2              1.00 
        5 xcircuit.xnand3.                nand2              1.00 
        6 xcircuit.xnand4.                nand2              1.00 
 

  
             
 Warning:'No DC path nodes' occurs 2 times
 No DC path from the following nodes,connected with gdcpath:
 -----------------------
 |Node      |Subckt    |
 |----------+----------|
 |d         |0         |
 |e         |0         |
 -----------------------
              
      
 **info** set option symb=1 internally to help for convergence.
 *****************************************************************
 ******  option summary
 ******
 runlvl  = 3         bypass  = 2.0000    

          ***** job concluded
 ******  
 ********************* hspice fa gates modeling **********************

 ****** job statistics summary tnom=  25.000 temp=  25.000 ******

  ******  HSPICE Threads Information  ******

  Command Line Threads Count :     1
  Available CPU Count        :    16
  Actual Threads Count       :     1


  ******  Circuit Statistics  ******
  # nodes       =      50 # elements   =      20
  # resistors   =       0 # capacitors =       0 # inductors   =       0
  # mutual_inds =       0 # vccs       =       0 # vcvs        =       0
  # cccs        =       0 # ccvs       =       0 # volt_srcs   =       2
  # curr_srcs   =       0 # diodes     =       0 # bjts        =       0
  # jfets       =       0 # mosfets    =      18 # U elements  =       0
  # T elements  =       0 # W elements =       0 # B elements  =       0
  # S elements  =       0 # P elements =       0 # va device   =       0
  # vector_srcs =       0 # N elements =       0


  ******  Runtime Statistics (seconds)  ******

  analysis           time    # points   tot. iter  conv.iter
  op point           0.00           1           0
  readin             0.05
  errchk             0.00
  setup              0.00
  output             0.00


           peak memory used         66.04 megabytes
           total cpu time            0.05 seconds
           total elapsed time        0.08 seconds
           job started at     05:07:43 07/11/2026
           job ended   at     05:07:43 07/11/2026
 ******  
 tdq_tcq_measure

 ****** circuit name directory
 circuit number to circuit name directory
   number circuitname                     definition         multiplier
        0 main circuit
        1 xcircuit.                       d_latch_nn         1.00 
        2 xcircuit.xinv_d.                inv                1.00 
        3 xcircuit.xnand1.                nand2              1.00 
        4 xcircuit.xnand2.                nand2              1.00 
        5 xcircuit.xnand3.                nand2              1.00 
        6 xcircuit.xnand4.                nand2              1.00 
  **info** (sim.sp:44) DC voltage reset to initial transient source value in source 0:vd. new dc=0.0000D+00
  
      
 **info** set option symb=1 internally to help for convergence.
 *****************************************************************
 ******  option summary
 ******
 runlvl  = 6         bypass  = 2.0000    
  Opening plot unit= 79
 file=D:\UT.CE\Term-06\AVLSI\CA\CA04\simulation\seq-elements\D-Latch\delay\sim.pa0

 ******
 tdq_tcq_measure

 ****** transient analysis tnom=  25.000 temp=  25.000 ******
  *** data name = circuit , index = 1 ***
  
  **warning** (sim.sp:58) .MEASURE tplh_q_e never reached the target value, Measurement failed! 
   tplh_q_e= failed       targ= not found    trig=   85.0000p
  **warning** (sim.sp:59) .MEASURE tphl_q_e never reached the trigger value, Measurement failed! 
   tphl_q_e= failed                          trig= not found
   tplh_q_d= failed                          trig= not found
   tphl_q_d= failed                          trig= not found

          ***** job concluded
 ******
 tdq_tcq_measure

 ****** transient analysis tnom=  25.000 temp=  25.000 ******
  *** data name = circuit , index = 2 ***
  
   tplh_q_e= failed                          trig= not found
   tphl_q_e= failed       targ= not found    trig=   85.0000p
   tplh_q_d= failed                          trig= not found
   tphl_q_d= failed                          trig= not found

          ***** job concluded
 ******
 tdq_tcq_measure

 ****** transient analysis tnom=  25.000 temp=  25.000 ******
  *** data name = circuit , index = 3 ***
  
 tplh_q_e=  67.6384p  targ= 152.6384p   trig=  85.0000p
   tphl_q_e= failed                          trig= not found
   tplh_q_d= failed                          trig= not found
   tphl_q_d= failed                          trig= not found

          ***** job concluded
 ******
 tdq_tcq_measure

 ****** transient analysis tnom=  25.000 temp=  25.000 ******
  *** data name = circuit , index = 4 ***
  
   tplh_q_e= failed                          trig= not found
   tphl_q_e= failed       targ= not found    trig=   85.0000p
   tplh_q_d= failed                          trig= not found
   tphl_q_d= failed                          trig= not found

          ***** job concluded
 ******
 tdq_tcq_measure

 ****** transient analysis tnom=  25.000 temp=  25.000 ******
  *** data name = circuit , index = 5 ***
  
   tplh_q_e= failed                          trig= not found
   tphl_q_e= failed                          trig= not found
   tplh_q_d= failed       targ= not found    trig=   85.0000p
   tphl_q_d= failed                          trig= not found

          ***** job concluded
 ******
 tdq_tcq_measure

 ****** transient analysis tnom=  25.000 temp=  25.000 ******
  *** data name = circuit , index = 6 ***
  
   tplh_q_e= failed                          trig= not found
   tphl_q_e= failed                          trig= not found
   tplh_q_d= failed                          trig= not found
   tphl_q_d= failed       targ= not found    trig=   85.0000p

          ***** job concluded
 ******
 tdq_tcq_measure

 ****** transient analysis tnom=  25.000 temp=  25.000 ******
  *** data name = circuit , index = 7 ***
  
   tplh_q_e= failed                          trig= not found
   tphl_q_e= failed                          trig= not found
 tplh_q_d=  67.5559p  targ= 152.5559p   trig=  85.0000p
   tphl_q_d= failed                          trig= not found

          ***** job concluded
 ******
 tdq_tcq_measure

 ****** transient analysis tnom=  25.000 temp=  25.000 ******
  *** data name = circuit , index = 8 ***
  
   tplh_q_e= failed                          trig= not found
   tphl_q_e= failed                          trig= not found
   tplh_q_d= failed                          trig= not found
 tphl_q_d= 139.0944p  targ= 224.0944p   trig=  85.0000p

          ***** job concluded
 ******  
 tdq_tcq_measure

 ****** job statistics summary tnom=  25.000 temp=  25.000 ******

  ******  Circuit Statistics  ******
  # nodes       =      50 # elements   =      22
  # resistors   =       0 # capacitors =       0 # inductors   =       0
  # mutual_inds =       0 # vccs       =       0 # vcvs        =       0
  # cccs        =       0 # ccvs       =       0 # volt_srcs   =       4
  # curr_srcs   =       0 # diodes     =       0 # bjts        =       0
  # jfets       =       0 # mosfets    =      18 # U elements  =       0
  # T elements  =       0 # W elements =       0 # B elements  =       0
  # S elements  =       0 # P elements =       0 # va device   =       0
  # vector_srcs =       0 # N elements =       0


  ******  Runtime Statistics (seconds)  ******

  analysis           time    # points   tot. iter  conv.iter
  op point           0.00           1           0
  transient          0.05      960008        3405        1169 rev=       159
  readin             0.01
  errchk             0.00
  setup              0.00
  output             0.00


           peak memory used         66.04 megabytes
           total cpu time            0.07 seconds
           total elapsed time        0.08 seconds
           job started at     05:07:43 07/11/2026
           job ended   at     05:07:43 07/11/2026
           job total runtime         0.15 seconds


  lic: Release hspice token(s) 
 lic: total license checkout elapse time:        0.02(s)
