$DATA1 SOURCE='HSPICE' VERSION='P-2019.06-SP1-1 win64' PARAM_COUNT=1
.TITLE '********************* hspice fa gates modeling **********************'
 tc               out_min          temper           alter#          
  1.500e-09       -9.672e-03         25.0000        1               
  1.499e-09       -9.796e-03         25.0000        1               
  1.498e-09       -9.807e-03         25.0000        1               
  1.497e-09       -9.810e-03         25.0000        1               
  1.496e-09       -9.814e-03         25.0000        1               
  1.495e-09       -9.820e-03         25.0000        1               
  1.494e-09       -9.825e-03         25.0000        1               
  1.493e-09       -9.831e-03         25.0000        1               
  1.492e-09       -9.838e-03         25.0000        1               
  1.491e-09       -9.848e-03         25.0000        1               
  1.490e-09       -9.852e-03         25.0000        1               
  1.489e-09       -9.863e-03         25.0000        1               
  1.488e-09       -9.861e-03         25.0000        1               
  1.487e-09       -9.869e-03         25.0000        1               
  1.486e-09       -9.880e-03         25.0000        1               
  1.485e-09       -9.882e-03         25.0000        1               
  1.484e-09       -9.888e-03         25.0000        1               
  1.483e-09       -9.899e-03         25.0000        1               
  1.482e-09       -9.903e-03         25.0000        1               
  1.481e-09       -9.909e-03         25.0000        1               
  1.480e-09       -9.918e-03         25.0000        1               
  1.479e-09       -9.932e-03         25.0000        1               
  1.478e-09       -9.932e-03         25.0000        1               
  1.477e-09       -9.939e-03         25.0000        1               
  1.476e-09       -9.951e-03         25.0000        1               
  1.475e-09       -9.957e-03         25.0000        1               
  1.474e-09       -9.964e-03         25.0000        1               
  1.473e-09       -9.964e-03         25.0000        1               
  1.472e-09       -9.971e-03         25.0000        1               
  1.471e-09       -9.987e-03         25.0000        1               
  1.470e-09       -9.994e-03         25.0000        1               
  1.469e-09       -1.000e-02         25.0000        1               
  1.468e-09       -1.001e-02         25.0000        1               
  1.467e-09       -1.002e-02         25.0000        1               
  1.466e-09       -1.003e-02         25.0000        1               
  1.465e-09       -1.003e-02         25.0000        1               
  1.464e-09       -1.004e-02         25.0000        1               
  1.463e-09       -1.006e-02         25.0000        1               
  1.462e-09       -1.005e-02         25.0000        1               
  1.461e-09       -1.005e-02         25.0000        1               
  1.460e-09       -1.006e-02         25.0000        1               
  1.459e-09       -1.010e-02         25.0000        1               
  1.458e-09       -1.009e-02         25.0000        1               
  1.457e-09       -1.009e-02         25.0000        1               
  1.456e-09       -1.010e-02         25.0000        1               
  1.455e-09       -1.011e-02         25.0000        1               
  1.454e-09       -1.011e-02         25.0000        1               
  1.453e-09       -1.014e-02         25.0000        1               
  1.452e-09       -1.015e-02         25.0000        1               
  1.451e-09       -1.016e-02         25.0000        1               
  1.450e-09       -1.018e-02         25.0000        1               
  1.449e-09       -1.019e-02         25.0000        1               
  1.448e-09       -1.020e-02         25.0000        1               
  1.447e-09       -1.021e-02         25.0000        1               
  1.446e-09       -1.022e-02         25.0000        1               
  1.445e-09       -9.977e-03         25.0000        1               
  1.444e-09       -9.989e-03         25.0000        1               
  1.443e-09       -9.995e-03         25.0000        1               
  1.442e-09       -1.030e-02         25.0000        1               
  1.441e-09       -1.018e-02         25.0000        1               
  1.440e-09       -1.002e-02         25.0000        1               
  1.439e-09       -1.019e-02         25.0000        1               
  1.438e-09       -1.017e-02         25.0000        1               
  1.437e-09       -1.021e-02         25.0000        1               
  1.436e-09       -1.022e-02         25.0000        1               
  1.435e-09       -1.022e-02         25.0000        1               
  1.434e-09       -1.031e-02         25.0000        1               
  1.433e-09       -1.023e-02         25.0000        1               
  1.432e-09       -1.024e-02         25.0000        1               
  1.431e-09       -1.025e-02         25.0000        1               
  1.430e-09       -1.024e-02         25.0000        1               
  1.429e-09       -1.030e-02         25.0000        1               
  1.428e-09       -1.031e-02         25.0000        1               
  1.427e-09       -1.044e-02         25.0000        1               
  1.426e-09       -1.024e-02         25.0000        1               
  1.425e-09       -1.038e-02         25.0000        1               
  1.424e-09       -1.013e-02         25.0000        1               
  1.423e-09       -1.041e-02         25.0000        1               
  1.422e-09       -1.043e-02         25.0000        1               
  1.421e-09       -1.024e-02         25.0000        1               
  1.420e-09       -1.035e-02         25.0000        1               
  1.419e-09       -1.044e-02         25.0000        1               
  1.418e-09       -1.045e-02         25.0000        1               
  1.417e-09       -1.025e-02         25.0000        1               
  1.416e-09       -1.028e-02         25.0000        1               
  1.415e-09       -1.030e-02         25.0000        1               
  1.414e-09       -1.050e-02         25.0000        1               
  1.413e-09       -1.031e-02         25.0000        1               
  1.412e-09       -1.036e-02         25.0000        1               
  1.411e-09       -1.035e-02         25.0000        1               
  1.410e-09       -1.054e-02         25.0000        1               
  1.409e-09       -1.043e-02         25.0000        1               
  1.408e-09       -1.047e-02         25.0000        1               
  1.407e-09       -1.040e-02         25.0000        1               
  1.406e-09       -1.057e-02         25.0000        1               
  1.405e-09       -1.060e-02         25.0000        1               
  1.404e-09       -1.045e-02         25.0000        1               
  1.403e-09       -1.045e-02         25.0000        1               
  1.402e-09       -1.040e-02         25.0000        1               
  1.401e-09       -1.069e-02         25.0000        1               
  1.400e-09       -1.050e-02         25.0000        1               
  1.399e-09       -1.065e-02         25.0000        1               
  1.398e-09       -1.052e-02         25.0000        1               
  1.397e-09       -1.056e-02         25.0000        1               
  1.396e-09       -1.070e-02         25.0000        1               
  1.395e-09       -1.063e-02         25.0000        1               
  1.394e-09       -1.070e-02         25.0000        1               
  1.393e-09       -1.066e-02         25.0000        1               
  1.392e-09       -1.061e-02         25.0000        1               
  1.391e-09       -1.056e-02         25.0000        1               
  1.390e-09       -1.064e-02         25.0000        1               
  1.389e-09       -1.064e-02         25.0000        1               
  1.388e-09       -1.081e-02         25.0000        1               
  1.387e-09       -1.086e-02         25.0000        1               
  1.386e-09       -1.088e-02         25.0000        1               
  1.385e-09       -1.081e-02         25.0000        1               
  1.384e-09       -1.082e-02         25.0000        1               
  1.383e-09       -1.073e-02         25.0000        1               
  1.382e-09       -1.085e-02         25.0000        1               
  1.381e-09       -1.052e-02         25.0000        1               
  1.380e-09       -1.065e-02         25.0000        1               
  1.379e-09       -1.068e-02         25.0000        1               
  1.378e-09       -1.073e-02         25.0000        1               
  1.377e-09       -1.075e-02         25.0000        1               
  1.376e-09       -1.072e-02         25.0000        1               
  1.375e-09       -1.094e-02         25.0000        1               
  1.374e-09       -1.092e-02         25.0000        1               
  1.373e-09       -1.090e-02         25.0000        1               
  1.372e-09       -1.103e-02         25.0000        1               
  1.371e-09       -1.101e-02         25.0000        1               
  1.370e-09       -1.101e-02         25.0000        1               
  1.369e-09       -1.104e-02         25.0000        1               
  1.368e-09       -1.104e-02         25.0000        1               
  1.367e-09       -1.099e-02         25.0000        1               
  1.366e-09       -1.106e-02         25.0000        1               
  1.365e-09       -1.107e-02         25.0000        1               
  1.364e-09       -1.112e-02         25.0000        1               
  1.363e-09       -1.112e-02         25.0000        1               
  1.362e-09       -1.067e-02         25.0000        1               
  1.361e-09       -1.086e-02         25.0000        1               
  1.360e-09       -1.072e-02         25.0000        1               
  1.359e-09       -1.081e-02         25.0000        1               
  1.358e-09       -1.116e-02         25.0000        1               
  1.357e-09       -1.105e-02         25.0000        1               
  1.356e-09       -1.109e-02         25.0000        1               
  1.355e-09       -1.119e-02         25.0000        1               
  1.354e-09       -1.112e-02         25.0000        1               
  1.353e-09       -1.092e-02         25.0000        1               
  1.352e-09       -1.088e-02         25.0000        1               
  1.351e-09       -1.088e-02         25.0000        1               
  1.350e-09       -1.108e-02         25.0000        1               
  1.349e-09       -1.100e-02         25.0000        1               
  1.348e-09          0.5694          25.0000        1               
  1.347e-09          0.5775          25.0000        1               
  1.346e-09          0.5863          25.0000        1               
  1.345e-09          0.5945          25.0000        1               
  1.344e-09          0.6027          25.0000        1               
  1.343e-09          0.6155          25.0000        1               
  1.342e-09          0.6201          25.0000        1               
  1.341e-09          0.6280          25.0000        1               
  1.340e-09          0.6372          25.0000        1               
  1.339e-09          0.6527          25.0000        1               
  1.338e-09          0.6592          25.0000        1               
  1.337e-09          0.6622          25.0000        1               
  1.336e-09          0.6709          25.0000        1               
  1.335e-09          0.6795          25.0000        1               
  1.334e-09          0.7008          25.0000        1               
  1.333e-09          0.7143          25.0000        1               
  1.332e-09          0.7251          25.0000        1               
  1.331e-09          0.7352          25.0000        1               
  1.330e-09          0.7291          25.0000        1               
  1.329e-09          0.7429          25.0000        1               
  1.328e-09          0.7488          25.0000        1               
  1.327e-09          0.7533          25.0000        1               
  1.326e-09          0.7627          25.0000        1               
  1.325e-09          0.7710          25.0000        1               
  1.324e-09          0.7798          25.0000        1               
  1.323e-09          0.7888          25.0000        1               
  1.322e-09          0.7975          25.0000        1               
  1.321e-09          0.8064          25.0000        1               
  1.320e-09          0.8154          25.0000        1               
  1.319e-09          0.8246          25.0000        1               
  1.318e-09          0.8338          25.0000        1               
  1.317e-09          0.8429          25.0000        1               
  1.316e-09          0.8518          25.0000        1               
  1.315e-09          0.8612          25.0000        1               
  1.314e-09          0.8712          25.0000        1               
  1.313e-09          0.8818          25.0000        1               
  1.312e-09          0.8909          25.0000        1               
  1.311e-09          0.8977          25.0000        1               
  1.310e-09          0.9083          25.0000        1               
  1.309e-09          0.9182          25.0000        1               
  1.308e-09          0.9289          25.0000        1               
  1.307e-09          0.9430          25.0000        1               
  1.306e-09          0.9515          25.0000        1               
  1.305e-09          0.9591          25.0000        1               
  1.304e-09          0.9746          25.0000        1               
  1.303e-09          0.9899          25.0000        1               
  1.302e-09          0.9931          25.0000        1               
  1.301e-09          0.9958          25.0000        1               
  1.300e-09          1.0170          25.0000        1               
  1.299e-09          1.0241          25.0000        1               
  1.298e-09          1.0388          25.0000        1               
  1.297e-09          1.0360          25.0000        1               
  1.296e-09          1.0470          25.0000        1               
  1.295e-09          1.0569          25.0000        1               
  1.294e-09          1.0666          25.0000        1               
  1.293e-09          1.0790          25.0000        1               
  1.292e-09          1.0905          25.0000        1               
  1.291e-09          1.0977          25.0000        1               
  1.290e-09          1.1045          25.0000        1               
  1.289e-09          1.1084          25.0000        1               
  1.288e-09          1.1200          25.0000        1               
  1.287e-09          1.1271          25.0000        1               
  1.286e-09          1.1344          25.0000        1               
  1.285e-09          1.1419          25.0000        1               
  1.284e-09          1.1519          25.0000        1               
  1.283e-09          1.1583          25.0000        1               
  1.282e-09          1.1664          25.0000        1               
  1.281e-09          1.1748          25.0000        1               
  1.280e-09          1.1826          25.0000        1               
  1.279e-09          1.1910          25.0000        1               
  1.278e-09          1.1996          25.0000        1               
  1.277e-09          1.2082          25.0000        1               
  1.276e-09          1.2175          25.0000        1               
  1.275e-09          1.2267          25.0000        1               
  1.274e-09          1.2361          25.0000        1               
  1.273e-09          1.2456          25.0000        1               
  1.272e-09          1.2579          25.0000        1               
  1.271e-09          1.2877          25.0000        1               
  1.270e-09          1.2936          25.0000        1               
  1.269e-09          1.2843          25.0000        1               
  1.268e-09          1.3086          25.0000        1               
  1.267e-09          1.3206          25.0000        1               
  1.266e-09          1.3294          25.0000        1               
  1.265e-09          1.3387          25.0000        1               
  1.264e-09          1.3486          25.0000        1               
  1.263e-09          1.3558          25.0000        1               
  1.262e-09          1.3619          25.0000        1               
  1.261e-09          1.3706          25.0000        1               
  1.260e-09          1.3739          25.0000        1               
  1.259e-09          1.3851          25.0000        1               
  1.258e-09          1.3916          25.0000        1               
  1.257e-09          1.3981          25.0000        1               
  1.256e-09          1.4077          25.0000        1               
  1.255e-09          1.4144          25.0000        1               
  1.254e-09          1.4208          25.0000        1               
  1.253e-09          1.4274          25.0000        1               
  1.252e-09          1.4339          25.0000        1               
  1.251e-09          1.4371          25.0000        1               
  1.250e-09          1.4440          25.0000        1               
  1.249e-09          1.4515          25.0000        1               
  1.248e-09          1.4600          25.0000        1               
  1.247e-09          1.4665          25.0000        1               
  1.246e-09          1.4728          25.0000        1               
  1.245e-09          1.4789          25.0000        1               
  1.244e-09          1.4857          25.0000        1               
  1.243e-09          1.4927          25.0000        1               
  1.242e-09          1.4996          25.0000        1               
  1.241e-09          1.5067          25.0000        1               
  1.240e-09          1.5140          25.0000        1               
  1.239e-09          1.5215          25.0000        1               
  1.238e-09          1.5324          25.0000        1               
  1.237e-09          1.5368          25.0000        1               
  1.236e-09          1.5479          25.0000        1               
  1.235e-09          1.5577          25.0000        1               
  1.234e-09          1.5660          25.0000        1               
  1.233e-09          1.5722          25.0000        1               
  1.232e-09          1.5778          25.0000        1               
  1.231e-09          1.5833          25.0000        1               
  1.230e-09          1.5874          25.0000        1               
  1.229e-09          1.5926          25.0000        1               
  1.228e-09          1.5988          25.0000        1               
  1.227e-09          1.6048          25.0000        1               
  1.226e-09          1.6096          25.0000        1               
  1.225e-09          1.6136          25.0000        1               
  1.224e-09          1.6218          25.0000        1               
  1.223e-09          1.6281          25.0000        1               
  1.222e-09          1.6342          25.0000        1               
  1.221e-09          1.6404          25.0000        1               
  1.220e-09          1.6464          25.0000        1               
  1.219e-09          1.6506          25.0000        1               
  1.218e-09          1.6563          25.0000        1               
  1.217e-09          1.6607          25.0000        1               
  1.216e-09          1.6647          25.0000        1               
  1.215e-09          1.6694          25.0000        1               
  1.214e-09          1.6756          25.0000        1               
  1.213e-09          1.6817          25.0000        1               
  1.212e-09          1.6891          25.0000        1               
  1.211e-09          1.6989          25.0000        1               
  1.210e-09          1.7043          25.0000        1               
  1.209e-09          1.7099          25.0000        1               
  1.208e-09          1.7160          25.0000        1               
  1.207e-09          1.7218          25.0000        1               
  1.206e-09          1.7275          25.0000        1               
  1.205e-09          1.7300          25.0000        1               
  1.204e-09          1.7333          25.0000        1               
  1.203e-09          1.7359          25.0000        1               
  1.202e-09          1.7375          25.0000        1               
  1.201e-09          1.7391          25.0000        1               
  1.200e-09          1.7406          25.0000        1               
  1.199e-09          1.7426          25.0000        1               
  1.198e-09          1.7436          25.0000        1               
  1.197e-09          1.7471          25.0000        1               
  1.196e-09          1.7475          25.0000        1               
  1.195e-09          1.7499          25.0000        1               
  1.194e-09          1.7524          25.0000        1               
  1.193e-09          1.7551          25.0000        1               
  1.192e-09          1.7571          25.0000        1               
  1.191e-09          1.7569          25.0000        1               
  1.190e-09          1.7572          25.0000        1               
  1.189e-09          1.7588          25.0000        1               
  1.188e-09          1.7611          25.0000        1               
  1.187e-09          1.7626          25.0000        1               
  1.186e-09          1.7646          25.0000        1               
  1.185e-09          1.7665          25.0000        1               
  1.184e-09          1.7670          25.0000        1               
  1.183e-09          1.7676          25.0000        1               
  1.182e-09          1.7685          25.0000        1               
  1.181e-09          1.7697          25.0000        1               
  1.180e-09          1.7707          25.0000        1               
  1.179e-09          1.7717          25.0000        1               
  1.178e-09          1.7728          25.0000        1               
  1.177e-09          1.7738          25.0000        1               
  1.176e-09          1.7739          25.0000        1               
  1.175e-09          1.7739          25.0000        1               
  1.174e-09          1.7741          25.0000        1               
  1.173e-09          1.7742          25.0000        1               
  1.172e-09          1.7744          25.0000        1               
  1.171e-09          1.7746          25.0000        1               
  1.170e-09          1.7748          25.0000        1               
  1.169e-09          1.7751          25.0000        1               
  1.168e-09          1.7753          25.0000        1               
  1.167e-09          1.7755          25.0000        1               
  1.166e-09          1.7756          25.0000        1               
  1.165e-09          1.7758          25.0000        1               
  1.164e-09          1.7760          25.0000        1               
  1.163e-09          1.7761          25.0000        1               
  1.162e-09          1.7762          25.0000        1               
  1.161e-09          1.7763          25.0000        1               
  1.160e-09          1.7764          25.0000        1               
  1.159e-09          1.7765          25.0000        1               
  1.158e-09          1.7765          25.0000        1               
  1.157e-09          1.7765          25.0000        1               
  1.156e-09          1.7764          25.0000        1               
  1.155e-09          1.7764          25.0000        1               
  1.154e-09          1.7764          25.0000        1               
  1.153e-09          1.7764          25.0000        1               
  1.152e-09          1.7763          25.0000        1               
  1.151e-09          1.7763          25.0000        1               
  1.150e-09          1.7763          25.0000        1               
  1.149e-09          1.7763          25.0000        1               
  1.148e-09          1.7763          25.0000        1               
  1.147e-09          1.7763          25.0000        1               
  1.146e-09          1.7762          25.0000        1               
  1.145e-09          1.7762          25.0000        1               
  1.144e-09          1.7762          25.0000        1               
  1.143e-09          1.7761          25.0000        1               
  1.142e-09          1.7761          25.0000        1               
  1.141e-09          1.7760          25.0000        1               
  1.140e-09          1.7760          25.0000        1               
  1.139e-09          1.7759          25.0000        1               
  1.138e-09          1.7758          25.0000        1               
  1.137e-09          1.7758          25.0000        1               
  1.136e-09          1.7757          25.0000        1               
  1.135e-09          1.7757          25.0000        1               
  1.134e-09          1.7756          25.0000        1               
  1.133e-09          1.7756          25.0000        1               
  1.132e-09          1.7755          25.0000        1               
  1.131e-09          1.7755          25.0000        1               
  1.130e-09          1.7754          25.0000        1               
  1.129e-09          1.7712          25.0000        1               
  1.128e-09          1.7669          25.0000        1               
  1.127e-09          1.7613          25.0000        1               
  1.126e-09          1.7562          25.0000        1               
  1.125e-09          1.7525          25.0000        1               
  1.124e-09          1.7456          25.0000        1               
  1.123e-09          1.7442          25.0000        1               
  1.122e-09          1.7402          25.0000        1               
  1.121e-09          1.7378          25.0000        1               
  1.120e-09          1.7378          25.0000        1               
  1.119e-09          1.7377          25.0000        1               
  1.118e-09          1.7378          25.0000        1               
  1.117e-09          1.7378          25.0000        1               
  1.116e-09          1.7379          25.0000        1               
  1.115e-09          1.7379          25.0000        1               
  1.114e-09          1.7376          25.0000        1               
  1.113e-09          1.7379          25.0000        1               
  1.112e-09          1.7379          25.0000        1               
  1.111e-09          1.7377          25.0000        1               
  1.110e-09          1.7378          25.0000        1               
  1.109e-09          1.7379          25.0000        1               
  1.108e-09          1.7378          25.0000        1               
  1.107e-09          1.7379          25.0000        1               
  1.106e-09          1.7377          25.0000        1               
  1.105e-09          1.7378          25.0000        1               
  1.104e-09          1.7378          25.0000        1               
  1.103e-09          1.7378          25.0000        1               
  1.102e-09          1.7378          25.0000        1               
  1.101e-09          1.7378          25.0000        1               
  1.100e-09          1.7377          25.0000        1               
