$DATA1 SOURCE='HSPICE' VERSION='P-2019.06-SP1-1 win64' PARAM_COUNT=1
.TITLE '********************* hspice fa gates modeling **********************'
 tc               out              temper           alter#          
  1.500e-09        4.653e-06         25.0000        1               
  1.499e-09        4.593e-06         25.0000        1               
  1.498e-09        4.037e-06         25.0000        1               
  1.497e-09        4.591e-06         25.0000        1               
  1.496e-09        4.449e-06         25.0000        1               
  1.495e-09        3.924e-06         25.0000        1               
  1.494e-09        4.775e-06         25.0000        1               
  1.493e-09        3.222e-06         25.0000        1               
  1.492e-09        4.476e-06         25.0000        1               
  1.491e-09        4.197e-06         25.0000        1               
  1.490e-09        3.400e-06         25.0000        1               
  1.489e-09        4.078e-06         25.0000        1               
  1.488e-09        3.544e-06         25.0000        1               
  1.487e-09        3.276e-06         25.0000        1               
  1.486e-09        3.690e-06         25.0000        1               
  1.485e-09        3.820e-06         25.0000        1               
  1.484e-09        3.271e-06         25.0000        1               
  1.483e-09        3.966e-06         25.0000        1               
  1.482e-09        4.345e-06         25.0000        1               
  1.481e-09        2.768e-06         25.0000        1               
  1.480e-09        2.702e-06         25.0000        1               
  1.479e-09        3.602e-06         25.0000        1               
  1.478e-09        3.907e-06         25.0000        1               
  1.477e-09        2.712e-06         25.0000        1               
  1.476e-09        2.289e-06         25.0000        1               
  1.475e-09        3.808e-06         25.0000        1               
  1.474e-09        2.618e-06         25.0000        1               
  1.473e-09        3.493e-06         25.0000        1               
  1.472e-09        2.860e-06         25.0000        1               
  1.471e-09        3.309e-06         25.0000        1               
  1.470e-09        3.389e-06         25.0000        1               
  1.469e-09        2.480e-06         25.0000        1               
  1.468e-09        3.094e-06         25.0000        1               
  1.467e-09        3.431e-06         25.0000        1               
  1.466e-09        3.525e-06         25.0000        1               
  1.465e-09        3.824e-06         25.0000        1               
  1.464e-09        3.133e-06         25.0000        1               
  1.463e-09        2.615e-06         25.0000        1               
  1.462e-09        4.035e-06         25.0000        1               
  1.461e-09        5.716e-06         25.0000        1               
  1.460e-09        3.240e-06         25.0000        1               
  1.459e-09        5.220e-06         25.0000        1               
  1.458e-09        6.473e-06         25.0000        1               
  1.457e-09        8.910e-06         25.0000        1               
  1.456e-09        1.241e-04         25.0000        1               
  1.455e-09          1.8000          25.0000        1               
  1.454e-09          1.8000          25.0000        1               
  1.453e-09          1.8000          25.0000        1               
  1.452e-09          1.8000          25.0000        1               
  1.451e-09          1.8000          25.0000        1               
  1.450e-09          1.8000          25.0000        1               
  1.449e-09          1.8000          25.0000        1               
  1.448e-09          1.8000          25.0000        1               
  1.447e-09          1.8000          25.0000        1               
  1.446e-09          1.8000          25.0000        1               
  1.445e-09          1.8000          25.0000        1               
  1.444e-09          1.8000          25.0000        1               
  1.443e-09          1.8000          25.0000        1               
  1.442e-09          1.8000          25.0000        1               
  1.441e-09          1.8000          25.0000        1               
  1.440e-09          1.8000          25.0000        1               
  1.439e-09          1.8000          25.0000        1               
  1.438e-09          1.8000          25.0000        1               
  1.437e-09          1.8000          25.0000        1               
  1.436e-09          1.8000          25.0000        1               
  1.435e-09          1.8000          25.0000        1               
  1.434e-09          1.8000          25.0000        1               
  1.433e-09          1.8000          25.0000        1               
  1.432e-09          1.8000          25.0000        1               
  1.431e-09          1.8000          25.0000        1               
  1.430e-09          1.8000          25.0000        1               
  1.429e-09          1.8000          25.0000        1               
  1.428e-09          1.8000          25.0000        1               
  1.427e-09          1.8000          25.0000        1               
  1.426e-09          1.8000          25.0000        1               
  1.425e-09          1.8000          25.0000        1               
  1.424e-09          1.8000          25.0000        1               
  1.423e-09          1.8000          25.0000        1               
  1.422e-09          1.8000          25.0000        1               
  1.421e-09          1.8000          25.0000        1               
  1.420e-09          1.8000          25.0000        1               
  1.419e-09          1.8000          25.0000        1               
  1.418e-09          1.8000          25.0000        1               
  1.417e-09          1.8000          25.0000        1               
  1.416e-09          1.8000          25.0000        1               
  1.415e-09          1.8000          25.0000        1               
  1.414e-09          1.8000          25.0000        1               
  1.413e-09          1.8000          25.0000        1               
  1.412e-09          1.8000          25.0000        1               
  1.411e-09          1.8000          25.0000        1               
  1.410e-09          1.8000          25.0000        1               
  1.409e-09          1.8000          25.0000        1               
  1.408e-09          1.8000          25.0000        1               
  1.407e-09          1.8000          25.0000        1               
  1.406e-09          1.8000          25.0000        1               
  1.405e-09          1.8000          25.0000        1               
  1.404e-09          1.8000          25.0000        1               
  1.403e-09          1.8000          25.0000        1               
  1.402e-09          1.8000          25.0000        1               
  1.401e-09          1.8000          25.0000        1               
  1.400e-09          1.8000          25.0000        1               
  1.399e-09          1.8000          25.0000        1               
  1.398e-09          1.8000          25.0000        1               
  1.397e-09          1.8000          25.0000        1               
  1.396e-09          1.8000          25.0000        1               
  1.395e-09          1.8000          25.0000        1               
  1.394e-09          1.8000          25.0000        1               
  1.393e-09          1.8000          25.0000        1               
  1.392e-09          1.8000          25.0000        1               
  1.391e-09          1.8000          25.0000        1               
  1.390e-09          1.8000          25.0000        1               
  1.389e-09          1.8000          25.0000        1               
  1.388e-09          1.8000          25.0000        1               
  1.387e-09          1.8000          25.0000        1               
  1.386e-09          1.8000          25.0000        1               
  1.385e-09          1.8000          25.0000        1               
  1.384e-09          1.8000          25.0000        1               
  1.383e-09          1.8000          25.0000        1               
  1.382e-09          1.8000          25.0000        1               
  1.381e-09          1.8000          25.0000        1               
  1.380e-09          1.8000          25.0000        1               
  1.379e-09          1.8000          25.0000        1               
  1.378e-09          1.8000          25.0000        1               
  1.377e-09          1.8000          25.0000        1               
  1.376e-09          1.8000          25.0000        1               
  1.375e-09          1.8000          25.0000        1               
  1.374e-09          1.8000          25.0000        1               
  1.373e-09          1.8000          25.0000        1               
  1.372e-09          1.8000          25.0000        1               
  1.371e-09          1.8000          25.0000        1               
  1.370e-09          1.8000          25.0000        1               
  1.369e-09          1.8000          25.0000        1               
  1.368e-09          1.8000          25.0000        1               
  1.367e-09          1.8000          25.0000        1               
  1.366e-09          1.8000          25.0000        1               
  1.365e-09          1.8000          25.0000        1               
  1.364e-09          1.8000          25.0000        1               
  1.363e-09          1.8000          25.0000        1               
  1.362e-09          1.8000          25.0000        1               
  1.361e-09          1.8000          25.0000        1               
  1.360e-09          1.8000          25.0000        1               
  1.359e-09          1.8000          25.0000        1               
  1.358e-09          1.8000          25.0000        1               
  1.357e-09          1.8000          25.0000        1               
  1.356e-09          1.8000          25.0000        1               
  1.355e-09          1.8000          25.0000        1               
  1.354e-09          1.8000          25.0000        1               
  1.353e-09          1.8000          25.0000        1               
  1.352e-09          1.8000          25.0000        1               
  1.351e-09          1.8000          25.0000        1               
  1.350e-09          1.8000          25.0000        1               
  1.349e-09          1.8000          25.0000        1               
  1.348e-09          1.8000          25.0000        1               
  1.347e-09          1.8000          25.0000        1               
  1.346e-09          1.8000          25.0000        1               
  1.345e-09          1.8000          25.0000        1               
  1.344e-09          1.8000          25.0000        1               
  1.343e-09          1.8000          25.0000        1               
  1.342e-09          1.8000          25.0000        1               
  1.341e-09          1.8000          25.0000        1               
  1.340e-09          1.8000          25.0000        1               
  1.339e-09          1.8000          25.0000        1               
  1.338e-09          1.8000          25.0000        1               
  1.337e-09          1.8000          25.0000        1               
  1.336e-09          1.8000          25.0000        1               
  1.335e-09          1.8000          25.0000        1               
  1.334e-09          1.8000          25.0000        1               
  1.333e-09          1.8000          25.0000        1               
  1.332e-09          1.8000          25.0000        1               
  1.331e-09          1.8000          25.0000        1               
  1.330e-09          1.8000          25.0000        1               
  1.329e-09          1.8000          25.0000        1               
  1.328e-09          1.8000          25.0000        1               
  1.327e-09          1.8000          25.0000        1               
  1.326e-09          1.8000          25.0000        1               
  1.325e-09          1.8000          25.0000        1               
  1.324e-09          1.8000          25.0000        1               
  1.323e-09          1.8000          25.0000        1               
  1.322e-09          1.8000          25.0000        1               
  1.321e-09          1.8000          25.0000        1               
  1.320e-09          1.8000          25.0000        1               
  1.319e-09          1.8000          25.0000        1               
  1.318e-09          1.8000          25.0000        1               
  1.317e-09          1.8000          25.0000        1               
  1.316e-09          1.8000          25.0000        1               
  1.315e-09          1.8000          25.0000        1               
  1.314e-09          1.8000          25.0000        1               
  1.313e-09          1.8000          25.0000        1               
  1.312e-09          1.8000          25.0000        1               
  1.311e-09          1.8000          25.0000        1               
  1.310e-09          1.8000          25.0000        1               
  1.309e-09          1.8000          25.0000        1               
  1.308e-09          1.8000          25.0000        1               
  1.307e-09          1.8000          25.0000        1               
  1.306e-09          1.8000          25.0000        1               
  1.305e-09          1.8000          25.0000        1               
  1.304e-09          1.8000          25.0000        1               
  1.303e-09          1.8000          25.0000        1               
  1.302e-09          1.8000          25.0000        1               
  1.301e-09          1.8000          25.0000        1               
  1.300e-09          1.8000          25.0000        1               
  1.299e-09          1.8000          25.0000        1               
  1.298e-09          1.8000          25.0000        1               
  1.297e-09          1.8000          25.0000        1               
  1.296e-09          1.8000          25.0000        1               
  1.295e-09          1.8000          25.0000        1               
  1.294e-09          1.8000          25.0000        1               
  1.293e-09          1.8000          25.0000        1               
  1.292e-09          1.8000          25.0000        1               
  1.291e-09          1.8000          25.0000        1               
  1.290e-09          1.8000          25.0000        1               
  1.289e-09          1.8000          25.0000        1               
  1.288e-09          1.8000          25.0000        1               
  1.287e-09          1.8000          25.0000        1               
  1.286e-09          1.8000          25.0000        1               
  1.285e-09          1.8000          25.0000        1               
  1.284e-09          1.8000          25.0000        1               
  1.283e-09          1.8000          25.0000        1               
  1.282e-09          1.8000          25.0000        1               
  1.281e-09          1.8000          25.0000        1               
  1.280e-09          1.8001          25.0000        1               
  1.279e-09          1.8001          25.0000        1               
  1.278e-09          1.8001          25.0000        1               
  1.277e-09          1.8001          25.0000        1               
  1.276e-09          1.8001          25.0000        1               
  1.275e-09          1.8001          25.0000        1               
  1.274e-09          1.8001          25.0000        1               
  1.273e-09          1.8001          25.0000        1               
  1.272e-09          1.8001          25.0000        1               
  1.271e-09          1.8001          25.0000        1               
  1.270e-09          1.8000          25.0000        1               
  1.269e-09          1.8000          25.0000        1               
  1.268e-09          1.8000          25.0000        1               
  1.267e-09          1.8000          25.0000        1               
  1.266e-09          1.8000          25.0000        1               
  1.265e-09          1.8000          25.0000        1               
  1.264e-09          1.8000          25.0000        1               
  1.263e-09          1.8000          25.0000        1               
  1.262e-09          1.7999          25.0000        1               
  1.261e-09          1.7999          25.0000        1               
  1.260e-09          1.7999          25.0000        1               
  1.259e-09          1.7999          25.0000        1               
  1.258e-09          1.7999          25.0000        1               
  1.257e-09          1.7998          25.0000        1               
  1.256e-09          1.7998          25.0000        1               
  1.255e-09          1.7998          25.0000        1               
  1.254e-09          1.7998          25.0000        1               
  1.253e-09          1.7998          25.0000        1               
  1.252e-09          1.7997          25.0000        1               
  1.251e-09          1.7997          25.0000        1               
  1.250e-09          1.7997          25.0000        1               
  1.249e-09          1.7997          25.0000        1               
  1.248e-09          1.7997          25.0000        1               
  1.247e-09          1.7997          25.0000        1               
  1.246e-09          1.7997          25.0000        1               
  1.245e-09          1.7997          25.0000        1               
  1.244e-09          1.7996          25.0000        1               
  1.243e-09          1.7996          25.0000        1               
  1.242e-09          1.7996          25.0000        1               
  1.241e-09          1.7996          25.0000        1               
  1.240e-09          1.7996          25.0000        1               
  1.239e-09          1.7995          25.0000        1               
  1.238e-09          1.7995          25.0000        1               
  1.237e-09          1.7995          25.0000        1               
  1.236e-09          1.7994          25.0000        1               
  1.235e-09          1.7994          25.0000        1               
  1.234e-09          1.7994          25.0000        1               
  1.233e-09          1.7994          25.0000        1               
  1.232e-09          1.7994          25.0000        1               
  1.231e-09          1.7994          25.0000        1               
  1.230e-09          1.7994          25.0000        1               
  1.229e-09          1.7994          25.0000        1               
  1.228e-09          1.7994          25.0000        1               
  1.227e-09          1.7994          25.0000        1               
  1.226e-09          1.7995          25.0000        1               
  1.225e-09          1.7996          25.0000        1               
  1.224e-09          1.7997          25.0000        1               
  1.223e-09          1.7998          25.0000        1               
  1.222e-09          1.8000          25.0000        1               
  1.221e-09          1.8001          25.0000        1               
  1.220e-09          1.8003          25.0000        1               
  1.219e-09          1.8005          25.0000        1               
  1.218e-09          1.8008          25.0000        1               
  1.217e-09          1.8010          25.0000        1               
  1.216e-09          1.8013          25.0000        1               
  1.215e-09          1.8016          25.0000        1               
  1.214e-09          1.8020          25.0000        1               
  1.213e-09          1.8023          25.0000        1               
  1.212e-09          1.8027          25.0000        1               
  1.211e-09          1.8031          25.0000        1               
  1.210e-09          1.8035          25.0000        1               
  1.209e-09          1.8040          25.0000        1               
  1.208e-09          1.8046          25.0000        1               
  1.207e-09          1.8052          25.0000        1               
  1.206e-09          1.8059          25.0000        1               
  1.205e-09          1.8067          25.0000        1               
  1.204e-09          1.8075          25.0000        1               
  1.203e-09          1.8085          25.0000        1               
  1.202e-09          1.8096          25.0000        1               
  1.201e-09          1.8106          25.0000        1               
  1.200e-09          1.8117          25.0000        1               
  1.199e-09          1.8128          25.0000        1               
  1.198e-09          1.8140          25.0000        1               
  1.197e-09          1.8151          25.0000        1               
  1.196e-09          1.8162          25.0000        1               
  1.195e-09          1.8173          25.0000        1               
  1.194e-09          1.8183          25.0000        1               
  1.193e-09          1.8194          25.0000        1               
  1.192e-09          1.8204          25.0000        1               
  1.191e-09          1.8213          25.0000        1               
  1.190e-09          1.8221          25.0000        1               
  1.189e-09          1.8229          25.0000        1               
  1.188e-09          1.8237          25.0000        1               
  1.187e-09          1.8244          25.0000        1               
  1.186e-09          1.8249          25.0000        1               
  1.185e-09          1.8255          25.0000        1               
  1.184e-09          1.8261          25.0000        1               
  1.183e-09          1.8266          25.0000        1               
  1.182e-09          1.8270          25.0000        1               
  1.181e-09          1.8274          25.0000        1               
  1.180e-09          1.8278          25.0000        1               
  1.179e-09          1.8282          25.0000        1               
  1.178e-09          1.8286          25.0000        1               
  1.177e-09          1.8289          25.0000        1               
  1.176e-09          1.8292          25.0000        1               
  1.175e-09          1.8298          25.0000        1               
  1.174e-09          1.8305          25.0000        1               
  1.173e-09          1.8312          25.0000        1               
  1.172e-09          1.8321          25.0000        1               
  1.171e-09          1.8332          25.0000        1               
  1.170e-09          1.8343          25.0000        1               
  1.169e-09          1.8354          25.0000        1               
  1.168e-09          1.8365          25.0000        1               
  1.167e-09          1.8375          25.0000        1               
  1.166e-09          1.8387          25.0000        1               
  1.165e-09          1.8398          25.0000        1               
  1.164e-09          1.8408          25.0000        1               
  1.163e-09          1.8418          25.0000        1               
  1.162e-09          1.8426          25.0000        1               
  1.161e-09          1.8436          25.0000        1               
  1.160e-09          1.8445          25.0000        1               
  1.159e-09          1.8455          25.0000        1               
  1.158e-09          1.8463          25.0000        1               
  1.157e-09          1.8470          25.0000        1               
  1.156e-09          1.8474          25.0000        1               
  1.155e-09          1.8469          25.0000        1               
  1.154e-09          1.8465          25.0000        1               
  1.153e-09          1.8454          25.0000        1               
  1.152e-09          1.8441          25.0000        1               
  1.151e-09          1.8429          25.0000        1               
  1.150e-09          1.8416          25.0000        1               
  1.149e-09          1.8403          25.0000        1               
  1.148e-09          1.8390          25.0000        1               
  1.147e-09          1.8378          25.0000        1               
  1.146e-09          1.8366          25.0000        1               
  1.145e-09          1.8353          25.0000        1               
  1.144e-09          1.8340          25.0000        1               
  1.143e-09          1.8329          25.0000        1               
  1.142e-09          1.8317          25.0000        1               
  1.141e-09          1.8304          25.0000        1               
  1.140e-09          1.8293          25.0000        1               
  1.139e-09          1.8281          25.0000        1               
  1.138e-09          1.8270          25.0000        1               
  1.137e-09          1.8258          25.0000        1               
  1.136e-09          1.8247          25.0000        1               
  1.135e-09          1.8236          25.0000        1               
  1.134e-09          1.8225          25.0000        1               
  1.133e-09          1.8215          25.0000        1               
  1.132e-09          1.8204          25.0000        1               
  1.131e-09          1.8194          25.0000        1               
  1.130e-09          1.8185          25.0000        1               
  1.129e-09          1.8175          25.0000        1               
  1.128e-09          1.8167          25.0000        1               
  1.127e-09          1.8158          25.0000        1               
  1.126e-09          1.8150          25.0000        1               
  1.125e-09          1.8142          25.0000        1               
  1.124e-09          1.8135          25.0000        1               
  1.123e-09          1.8127          25.0000        1               
  1.122e-09          1.8121          25.0000        1               
  1.121e-09          1.8115          25.0000        1               
  1.120e-09          1.8108          25.0000        1               
  1.119e-09          1.8102          25.0000        1               
  1.118e-09          1.8097          25.0000        1               
  1.117e-09          1.8091          25.0000        1               
  1.116e-09          1.8086          25.0000        1               
  1.115e-09          1.8081          25.0000        1               
  1.114e-09          1.8077          25.0000        1               
  1.113e-09          1.8072          25.0000        1               
  1.112e-09          1.8068          25.0000        1               
  1.111e-09          1.8064          25.0000        1               
  1.110e-09          1.8061          25.0000        1               
  1.109e-09          1.8059          25.0000        1               
  1.108e-09          1.8055          25.0000        1               
  1.107e-09          1.8053          25.0000        1               
  1.106e-09          1.8050          25.0000        1               
  1.105e-09          1.8048          25.0000        1               
  1.104e-09          1.8046          25.0000        1               
  1.103e-09          1.8044          25.0000        1               
  1.102e-09          1.8042          25.0000        1               
  1.101e-09          1.8040          25.0000        1               
  1.100e-09          1.8038          25.0000        1               
  1.099e-09          1.8036          25.0000        1               
  1.098e-09          1.8035          25.0000        1               
  1.097e-09          1.8033          25.0000        1               
  1.096e-09          1.8032          25.0000        1               
  1.095e-09          1.8030          25.0000        1               
  1.094e-09          1.8029          25.0000        1               
  1.093e-09          1.8027          25.0000        1               
  1.092e-09          1.8026          25.0000        1               
  1.091e-09          1.8024          25.0000        1               
  1.090e-09          1.8023          25.0000        1               
  1.089e-09          1.8022          25.0000        1               
  1.088e-09          1.8021          25.0000        1               
  1.087e-09          1.8019          25.0000        1               
  1.086e-09          1.8018          25.0000        1               
  1.085e-09          1.8017          25.0000        1               
  1.084e-09          1.8016          25.0000        1               
  1.083e-09          1.8015          25.0000        1               
  1.082e-09          1.8014          25.0000        1               
  1.081e-09          1.8013          25.0000        1               
  1.080e-09          1.8012          25.0000        1               
  1.079e-09          1.8011          25.0000        1               
  1.078e-09          1.8011          25.0000        1               
  1.077e-09          1.8010          25.0000        1               
  1.076e-09          1.8009          25.0000        1               
  1.075e-09          1.8009          25.0000        1               
  1.074e-09          1.8008          25.0000        1               
  1.073e-09          1.8007          25.0000        1               
  1.072e-09          1.8007          25.0000        1               
  1.071e-09          1.8006          25.0000        1               
  1.070e-09          1.8005          25.0000        1               
  1.069e-09          1.8005          25.0000        1               
  1.068e-09          1.8005          25.0000        1               
  1.067e-09          1.8004          25.0000        1               
  1.066e-09          1.8004          25.0000        1               
  1.065e-09          1.8003          25.0000        1               
  1.064e-09          1.8003          25.0000        1               
  1.063e-09          1.8003          25.0000        1               
  1.062e-09          1.8002          25.0000        1               
  1.061e-09          1.8002          25.0000        1               
  1.060e-09          1.8002          25.0000        1               
  1.059e-09          1.8001          25.0000        1               
  1.058e-09          1.8001          25.0000        1               
  1.057e-09          1.8001          25.0000        1               
  1.056e-09          1.8001          25.0000        1               
  1.055e-09          1.8001          25.0000        1               
  1.054e-09          1.8000          25.0000        1               
  1.053e-09          1.8000          25.0000        1               
  1.052e-09          1.8000          25.0000        1               
  1.051e-09          1.8000          25.0000        1               
  1.050e-09          1.8000          25.0000        1               
  1.049e-09          1.8000          25.0000        1               
  1.048e-09          1.7999          25.0000        1               
  1.047e-09          1.7999          25.0000        1               
  1.046e-09          1.7999          25.0000        1               
  1.045e-09          1.7999          25.0000        1               
  1.044e-09          1.7999          25.0000        1               
  1.043e-09          1.7999          25.0000        1               
  1.042e-09          1.7999          25.0000        1               
  1.041e-09          1.7999          25.0000        1               
  1.040e-09          1.7999          25.0000        1               
  1.039e-09          1.7999          25.0000        1               
  1.038e-09          1.7999          25.0000        1               
  1.037e-09          1.7998          25.0000        1               
  1.036e-09          1.7998          25.0000        1               
  1.035e-09          1.7998          25.0000        1               
  1.034e-09          1.7998          25.0000        1               
  1.033e-09          1.7998          25.0000        1               
  1.032e-09          1.7998          25.0000        1               
  1.031e-09          1.7998          25.0000        1               
  1.030e-09          1.7998          25.0000        1               
  1.029e-09          1.7998          25.0000        1               
  1.028e-09          1.7998          25.0000        1               
  1.027e-09          1.7998          25.0000        1               
  1.026e-09          1.7998          25.0000        1               
  1.025e-09          1.7998          25.0000        1               
  1.024e-09          1.7998          25.0000        1               
  1.023e-09          1.7998          25.0000        1               
  1.022e-09          1.7998          25.0000        1               
  1.021e-09          1.7998          25.0000        1               
  1.020e-09          1.7998          25.0000        1               
  1.019e-09          1.7998          25.0000        1               
  1.018e-09          1.7998          25.0000        1               
  1.017e-09          1.7998          25.0000        1               
  1.016e-09          1.7998          25.0000        1               
  1.015e-09          1.7998          25.0000        1               
  1.014e-09          1.7998          25.0000        1               
  1.013e-09          1.7998          25.0000        1               
  1.012e-09          1.7998          25.0000        1               
  1.011e-09          1.7998          25.0000        1               
  1.010e-09          1.7998          25.0000        1               
  1.009e-09          1.7998          25.0000        1               
  1.008e-09          1.7998          25.0000        1               
  1.007e-09          1.7998          25.0000        1               
  1.006e-09          1.7998          25.0000        1               
  1.005e-09          1.7998          25.0000        1               
  1.004e-09          1.7998          25.0000        1               
  1.003e-09          1.7998          25.0000        1               
  1.002e-09          1.7998          25.0000        1               
  1.001e-09          1.7998          25.0000        1               
  1.000e-09          1.7998          25.0000        1               
