 ****** HSPICE -- P-2019.06-SP1-1 win64 (Sep 27 2019) ******                    
  Copyright (c) 1986 - 2026 by Synopsys, Inc. All Rights Reserved.              
  This software and the associated documentation are proprietary
  to Synopsys, Inc. This software may only be used in accordance
  with the terms and conditions of a written license agreement with
  Synopsys, Inc. All other use, reproduction, or distribution of
  this software is strictly prohibited.
  Input File: sim.sp                                                            
  Command line options: C:\synopsys\Hspice_P-2019.06-SP1-1\WIN64\hspice.com -i sim.sp -o D:\UT.CE\Term-06\AVLSI\CA\CA04\simulation\pipe\3latch\P1\func + time borrow\sim.lis
  Start time: Sat Jul 11 04:54:30 2026
  lic:  
  lic: FLEXlm: SDK_12.3 
  lic: USER:   Mohammad-Khohsroo    HOSTNAME: DESKTOP-GMQQFUO 
  lic: HOSTID: "088fc3e7a24d"       PID:      1568 
  lic: Using FLEXlm license file: 
  lic: 27000@DESKTOP-GMQQFUO 
  lic: Checkout 1 hspice 
  lic: License/Maintenance for hspice will expire on 30-dec-2030/2020.12 
  lic: 1(in_use)/99(total) FLOATING license(s) on SERVER 27000@DESKTOP-GMQQFUO 
  lic:   
1****** HSPICE -- P-2019.06-SP1-1 win64 (Sep 27 2019) ******                    
 ******  
 ********************* hspice fa gates modeling **********************

 ****** circuit name directory
 circuit number to circuit name directory
   number circuitname                     definition         multiplier
        0 main circuit
        1 xpipe.                          latch_pipe_p1      1.00 
        2 xpipe.xinv_clk.                 inv                1.00 
        3 xpipe.xlatch_a.                 d_latch_nn         1.00 
        4 xpipe.xlatch_b.                 d_latch_nn         1.00 
        5 xpipe.xlatch_c.                 d_latch_nn         1.00 
        6 xpipe.xlatch_d.                 d_latch_nn         1.00 
        7 xpipe.xnand1.                   nand2              1.00 
        8 xpipe.xnor1.                    nor2               1.00 
        9 xpipe.xinv1.                    inv                1.00 
       10 xpipe.xxor1.                    xor2_sym           1.00 
       11 xpipe.xxnor1.                   xnor2_sym          1.00 
       12 xpipe.xlatch_xor.               d_latch_nn         1.00 
       13 xpipe.xlatch_xnor.              d_latch_nn         1.00 
       14 xpipe.xnand2.                   and2               1.00 
       15 xpipe.xnor3.                    nor3               1.00 
       16 xpipe.xlatch_out.               d_latch_nn         1.00 
       17 xpipe.xlatch_a.xinv_d.          inv                1.00 
       18 xpipe.xlatch_a.xnand1.          nand2              1.00 
       19 xpipe.xlatch_a.xnand2.          nand2              1.00 
       20 xpipe.xlatch_a.xnand3.          nand2              1.00 
       21 xpipe.xlatch_a.xnand4.          nand2              1.00 
       22 xpipe.xlatch_b.xinv_d.          inv                1.00 
       23 xpipe.xlatch_b.xnand1.          nand2              1.00 
       24 xpipe.xlatch_b.xnand2.          nand2              1.00 
       25 xpipe.xlatch_b.xnand3.          nand2              1.00 
       26 xpipe.xlatch_b.xnand4.          nand2              1.00 
       27 xpipe.xlatch_c.xinv_d.          inv                1.00 
       28 xpipe.xlatch_c.xnand1.          nand2              1.00 
       29 xpipe.xlatch_c.xnand2.          nand2              1.00 
       30 xpipe.xlatch_c.xnand3.          nand2              1.00 
       31 xpipe.xlatch_c.xnand4.          nand2              1.00 
       32 xpipe.xlatch_d.xinv_d.          inv                1.00 
       33 xpipe.xlatch_d.xnand1.          nand2              1.00 
       34 xpipe.xlatch_d.xnand2.          nand2              1.00 
       35 xpipe.xlatch_d.xnand3.          nand2              1.00 
       36 xpipe.xlatch_d.xnand4.          nand2              1.00 
       37 xpipe.xxor1.xinv1.              inv                1.00 
       38 xpipe.xxor1.xinv2.              inv                1.00 
       39 xpipe.xxnor1.xinv1.             inv                1.00 
       40 xpipe.xxnor1.xinv2.             inv                1.00 
       41 xpipe.xlatch_xor.xinv_d.        inv                1.00 
       42 xpipe.xlatch_xor.xnand1.        nand2              1.00 
       43 xpipe.xlatch_xor.xnand2.        nand2              1.00 
       44 xpipe.xlatch_xor.xnand3.        nand2              1.00 
       45 xpipe.xlatch_xor.xnand4.        nand2              1.00 
       46 xpipe.xlatch_xnor.xinv_d.       inv                1.00 
       47 xpipe.xlatch_xnor.xnand1.       nand2              1.00 
       48 xpipe.xlatch_xnor.xnand2.       nand2              1.00 
       49 xpipe.xlatch_xnor.xnand3.       nand2              1.00 
       50 xpipe.xlatch_xnor.xnand4.       nand2              1.00 
       51 xpipe.xnand2.xinv.              inv                1.00 
       52 xpipe.xnand2.xnand.             nand2              1.00 
       53 xpipe.xlatch_out.xinv_d.        inv                1.00 
       54 xpipe.xlatch_out.xnand1.        nand2              1.00 
       55 xpipe.xlatch_out.xnand2.        nand2              1.00 
       56 xpipe.xlatch_out.xnand3.        nand2              1.00 
       57 xpipe.xlatch_out.xnand4.        nand2              1.00 
  **info** (sim.sp:35) DC voltage reset to initial transient source value in source 0:va. new dc=0.0000D+00
 

  
      
 **info** set option symb=1 internally to help for convergence.
 *****************************************************************
 ******  option summary
 ******
 runlvl  = 3         bypass  = 2.0000    
  Opening plot unit= 79
 file=D:\UT.CE\Term-06\AVLSI\CA\CA04\simulation\pipe\3latch\P1\func + time borrow\sim.pa0

 **info** dc convergence successful at Newton-Raphson method 
 ******  
 ********************* hspice fa gates modeling **********************

 ****** operating point information tnom=  25.000 temp=  25.000 ******
 ****** operating point status is voltage   simulation time is     0.     
     node    =voltage       node    =voltage       node    =voltage

 + 0:a       =   0.       0:b       =   0.       0:c       =   0.     
 + 0:clk     =   0.       0:d       =   0.       0:out_l   =   1.8000 
 + 0:vdd     =   1.8000   0:vss     =   0.       1:a_l     = 726.8592m
 + 1:a_l_bar = 726.8592m  1:and_out =   5.2635n  1:b_l     = 726.8592m
 + 1:b_l_bar = 726.8592m  1:c_l     = 726.8592m  1:c_l_bar = 726.8592m
 + 1:clk_bar =   1.8000   1:d_l     = 726.8592m  1:d_l_bar = 726.8592m
 + 1:inv_d   =   1.5399   1:nand_ab =   1.7286   1:nor_bc  = 561.0415m
 + 1:out     =   9.7888n  1:out_l_ba=  23.3748n  1:xnor_l  =  23.3748n
 + 1:xnor_l_b=   1.8000   1:xnor_out=   8.8385u  1:xor_l   =   1.8000 
 + 1:xor_l_ba=  23.3748n  1:xor_out =   1.7705   3:d_not   =   1.8000 
 + 3:n1      =   1.8000   3:n2      =   1.8000   4:d_not   =   1.8000 
 + 4:n1      =   1.8000   4:n2      =   1.8000   5:d_not   =   1.8000 
 + 5:n1      =   1.8000   5:n2      =   1.8000   6:d_not   =   1.8000 
 + 6:n1      =   1.8000   6:n2      =   1.8000   7:x       =  80.8075m
 + 8:x       =   1.6335  10:in1_bar =  16.5461n 10:in2_bar =   1.7683 
 +10:x1      = 951.4933m 10:x2      =   6.1338n 10:y1      =   1.7953 
 +10:y2      =   1.7881  11:in1_bar =   1.7712  11:in2_bar =   4.1368u
 +11:x1      =   8.8385u 11:x2      =   4.6282u 11:y1      =   1.8000 
 +11:y2      = 431.6218m 12:d_not   =  16.5805n 12:n1      =  28.9893n
 +12:n2      =   1.8000  13:d_not   =   1.8000  13:n1      =   1.8000 
 +13:n2      =  23.3748n 14:out_bar =   1.8000  15:x       = 434.4191m
 +15:y       = 412.9342m 16:d_not   =   1.8000  16:n1      =   1.8000 
 +16:n2      =   1.8000  18:x       =  44.8278m 19:x       =   1.4699 
 +20:x       = 652.2813m 21:x       = 652.2812m 23:x       =  44.8278m
 +24:x       =   1.4699  25:x       = 652.2813m 26:x       = 652.2812m
 +28:x       =  44.8278m 29:x       =   1.4699  30:x       = 652.2813m
 +31:x       = 652.2812m 33:x       =  44.8278m 34:x       =   1.4699 
 +35:x       = 652.2813m 36:x       = 652.2812m 42:x       =  14.4205n
 +43:x       =  18.7142n 44:x       =  44.8277m 45:x       =  11.6874n
 +47:x       =  18.7185n 48:x       =  11.6874n 49:x       =  11.6874n
 +50:x       =  44.8278m 52:x       =   1.4489  54:x       =  44.8278m
 +55:x       =   1.4699  56:x       =   1.4699  57:x       =  11.6874n


          ***** job concluded
 ******  
 ********************* hspice fa gates modeling **********************

 ****** job statistics summary tnom=  25.000 temp=  25.000 ******

  ******  HSPICE Threads Information  ******

  Command Line Threads Count :     1
  Available CPU Count        :    16
  Actual Threads Count       :     1


  ******  Circuit Statistics  ******
  # nodes       =     445 # elements   =     182
  # resistors   =       0 # capacitors =       1 # inductors   =       0
  # mutual_inds =       0 # vccs       =       0 # vcvs        =       0
  # cccs        =       0 # ccvs       =       0 # volt_srcs   =       7
  # curr_srcs   =       0 # diodes     =       0 # bjts        =       0
  # jfets       =       0 # mosfets    =     174 # U elements  =       0
  # T elements  =       0 # W elements =       0 # B elements  =       0
  # S elements  =       0 # P elements =       0 # va device   =       0
  # vector_srcs =       0 # N elements =       0


  ******  Runtime Statistics (seconds)  ******

  analysis           time    # points   tot. iter  conv.iter
  op point           0.01           1          49
  transient          0.54        3601        5010        1696 rev=        52
  readin             0.05
  errchk             0.01
  setup              0.00
  output             0.00


           peak memory used         73.67 megabytes
           total cpu time            0.61 seconds
           total elapsed time        0.63 seconds
           job started at     04:54:30 07/11/2026
           job ended   at     04:54:30 07/11/2026
           job total runtime         0.63 seconds


  lic: Release hspice token(s) 
 lic: total license checkout elapse time:        0.02(s)
