***************** HSPICE RIPPLE CARRY ADDER MODELING ***************
*
*   Mohammad Khoshroo - 810102441 
*   Spring 2026
*   AVLSI Course - by Dr. Vahdat
*   Standard MOSFET Model Name : nch , pch
*
*
.INC "FA.inc"
*
************************* RCA-2bit .SUBCKT *************************

.SUBCKT RCA2 A1 A0 B1 B0 Cin S1 S0 Cout Vdd Vss 

XFA_L    A0  B0  Cin     S0  Cmid    Vdd Vss FA_T
XFA_H    A1  B1  Cmid    S1  Cout    Vdd Vss FA_T

.ENDS RCA2

************************ RCA-4bit .SUBCKT ************************

.SUBCKT RCA4 A3 A2 A1 A0 B3 B2 B1 B0 Cin S3 S2 S1 S0 Cout Vdd Vss

XRCA_L  A1 A0  B1 B0  Cin   S1 S0  Cmid  Vdd Vss RCA2
XRCA_H  A3 A2  B3 B2  Cmid  S3 S2  Cout  Vdd Vss RCA2

.ENDS RCA4

************************ RCA-8bit .SUBCKT ************************

.SUBCKT RCA8 A7 A6 A5 A4 A3 A2 A1 A0 B7 B6 B5 B4 B3 B2 B1 B0 Cin S7 S6 S5 S4 S3 S2 S1 S0 Cout Vdd Vss

XRCA_L  A3 A2 A1 A0  B3 B2 B1 B0  Cin   S3 S2 S1 S0  Cmid  Vdd Vss RCA4
XRCA_H  A7 A6 A5 A4  B7 B6 B5 B4  Cmid  S7 S6 S5 S4  Cout  Vdd Vss RCA4

.ENDS RCA8

************************ RCA-16bit .SUBCKT ************************

.SUBCKT RCA16 A15 A14 A13 A12 A11 A10 A9 A8 A7 A6 A5 A4 A3 A2 A1 A0 B15 B14 B13 B12 B11 B10 B9 B8 B7 B6 B5 B4 B3 B2 B1 B0 Cin S15 S14 S13 S12 S11 S10 S9 S8 S7 S6 S5 S4 S3 S2 S1 S0 Cout Vdd Vss

XRCA_L  A7 A6 A5 A4 A3 A2 A1 A0
+       B7  B6  B5  B4  B3  B2  B1 B0  Cin
+       S7 S6 S5 S4 S3 S2 S1 S0  Cmid  Vdd Vss RCA8
XRCA_H  A15 A14 A13 A12 A11 A10 A9 A8
+       B15 B14 B13 B12 B11 B10 B9 B8  Cmid  
+       S15 S14 S13 S12 S11 S10 S9 S8  Cout  Vdd Vss RCA8

.ENDS RCA16

************************ RCA-32bit .SUBCKT ************************

.SUBCKT RCA32 A31 A30 A29 A28 A27 A26 A25 A24 A23 A22 A21 A20 A19 A18 A17 A16 A15 A14 A13 A12 A11 A10 A9 A8 A7 A6 A5 A4 A3 A2 A1 A0 B31 B30 B29 B28 B27 B26 B25 B24 B23 B22 B21 B20 B19 B18 B17 B16 B15 B14 B13 B12 B11 B10 B9 B8 B7 B6 B5 B4 B3 B2 B1 B0 Cin S31 S30 S29 S28 S27 S26 S25 S24 S23 S22 S21 S20 S19 S18 S17 S16 S15 S14 S13 S12 S11 S10 S9 S8 S7 S6 S5 S4 S3 S2 S1 S0 Cout Vdd Vss

XRCA_L  A15 A14 A13 A12 A11 A10 A9  A8
+       A7  A6  A5  A4  A3  A2  A1  A0
+       B15 B14 B13 B12 B11 B10 B9  B8 
+       B7  B6  B5  B4  B3  B2  B1  B0  Cin
+       S15 S14 S13 S12 S11 S10 S9  S8 
+       S7  S6  S5  S4  S3  S2  S1  S0  Cmid  Vdd Vss RCA16
XRCA_H  A31 A30 A29 A28 A27 A26 A25 A24
+       A23 A22 A21 A20 A19 A18 A17 A16  
+       B31 B30 B29 B28 B27 B26 B25 B24 
+       B23 B22 B21 B20 B19 B18 B17 B16  Cmid  
+       S31 S30 S29 S28 S27 S26 S25 S24 
+       S23 S22 S21 S20 S19 S18 S17 S16  Cout  Vdd Vss RCA16

.ENDS RCA32

************************ RCA-64bit .SUBCKT ************************

.SUBCKT RCA64 A63 A62 A61 A60 A59 A58 A57 A56 A55 A54 A53 A52 A51 A50 A49 A48 A47 A46 A45 A44 A43 A42 A41 A40 A39 A38 A37 A36 A35 A34 A33 A32 A31 A30 A29 A28 A27 A26 A25 A24 A23 A22 A21 A20 A19 A18 A17 A16 A15 A14 A13 A12 A11 A10 A9 A8 A7 A6 A5 A4 A3 A2 A1 A0 B63 B62 B61 B60 B59 B58 B57 B56 B55 B54 B53 B52 B51 B50 B49 B48 B47 B46 B45 B44 B43 B42 B41 B40 B39 B38 B37 B36 B35 B34 B33 B32 B31 B30 B29 B28 B27 B26 B25 B24 B23 B22 B21 B20 B19 B18 B17 B16 B15 B14 B13 B12 B11 B10 B9 B8 B7 B6 B5 B4 B3 B2 B1 B0 Cin S63 S62 S61 S60 S59 S58 S57 S56 S55 S54 S53 S52 S51 S50 S49 S48 S47 S46 S45 S44 S43 S42 S41 S40 S39 S38 S37 S36 S35 S34 S33 S32 S31 S30 S29 S28 S27 S26 S25 S24 S23 S22 S21 S20 S19 S18 S17 S16 S15 S14 S13 S12 S11 S10 S9 S8 S7 S6 S5 S4 S3 S2 S1 S0 Cout Vdd Vss

XRCA_L  A31 A30 A29 A28 A27 A26 A25 A24 
+       A23 A22 A21 A20 A19 A18 A17 A16 
+       A15 A14 A13 A12 A11 A10 A9  A8 
+       A7  A6  A5  A4  A3  A2  A1  A0  
+       B31 B30 B29 B28 B27 B26 B25 B24 
+       B23 B22 B21 B20 B19 B18 B17 B16 
+       B15 B14 B13 B12 B11 B10 B9  B8 
+       B7  B6  B5  B4  B3  B2  B1  B0  Cin   
+       S31 S30 S29 S28 S27 S26 S25 S24 
+       S23 S22 S21 S20 S19 S18 S17 S16 
+       S15 S14 S13 S12 S11 S10 S9  S8 
+       S7  S6  S5  S4  S3  S2  S1  S0  Cmid  Vdd Vss RCA32
XRCA_H  A63 A62 A61 A60 A59 A58 A57 A56 
+       A55 A54 A53 A52 A51 A50 A49 A48 
+       A47 A46 A45 A44 A43 A42 A41 A40 
+       A39 A38 A37 A36 A35 A34 A33 A32  
+       B63 B62 B61 B60 B59 B58 B57 B56 
+       B55 B54 B53 B52 B51 B50 B49 B48 
+       B47 B46 B45 B44 B43 B42 B41 B40 
+       B39 B38 B37 B36 B35 B34 B33 B32  Cmid  
+       S63 S62 S61 S60 S59 S58 S57 S56 
+       S55 S54 S53 S52 S51 S50 S49 S48 
+       S47 S46 S45 S44 S43 S42 S41 S40 
+       S39 S38 S37 S36 S35 S34 S33 S32  Cout  Vdd Vss RCA32

.ENDS RCA64