$DATA1 SOURCE='HSPICE' VERSION='P-2019.06-SP1-1 win64' PARAM_COUNT=1
.TITLE 'hold_sweep'
 t_hold           q_min            temper           alter#          
  2.000e-10          1.7361          25.0000        4               
  1.990e-10          1.7361          25.0000        4               
  1.980e-10          1.7361          25.0000        4               
  1.970e-10          1.7361          25.0000        4               
  1.960e-10          1.7361          25.0000        4               
  1.950e-10          1.7361          25.0000        4               
  1.940e-10          1.7361          25.0000        4               
  1.930e-10          1.7361          25.0000        4               
  1.920e-10          1.7361          25.0000        4               
  1.910e-10          1.7361          25.0000        4               
  1.900e-10          1.7361          25.0000        4               
  1.890e-10          1.7361          25.0000        4               
  1.880e-10          1.7361          25.0000        4               
  1.870e-10          1.7361          25.0000        4               
  1.860e-10          1.7361          25.0000        4               
  1.850e-10          1.7361          25.0000        4               
  1.840e-10          1.7361          25.0000        4               
  1.830e-10          1.7361          25.0000        4               
  1.820e-10          1.7361          25.0000        4               
  1.810e-10          1.7361          25.0000        4               
  1.800e-10          1.7361          25.0000        4               
  1.790e-10          1.7361          25.0000        4               
  1.780e-10          1.7361          25.0000        4               
  1.770e-10          1.7361          25.0000        4               
  1.760e-10          1.7361          25.0000        4               
  1.750e-10          1.7361          25.0000        4               
  1.740e-10          1.7361          25.0000        4               
  1.730e-10          1.7361          25.0000        4               
  1.720e-10          1.7361          25.0000        4               
  1.710e-10          1.7361          25.0000        4               
  1.700e-10          1.7361          25.0000        4               
  1.690e-10          1.7361          25.0000        4               
  1.680e-10          1.7361          25.0000        4               
  1.670e-10          1.7361          25.0000        4               
  1.660e-10          1.7361          25.0000        4               
  1.650e-10          1.7361          25.0000        4               
  1.640e-10          1.7361          25.0000        4               
  1.630e-10          1.7361          25.0000        4               
  1.620e-10          1.7361          25.0000        4               
  1.610e-10          1.7361          25.0000        4               
  1.600e-10          1.7361          25.0000        4               
  1.590e-10          1.7361          25.0000        4               
  1.580e-10          1.7361          25.0000        4               
  1.570e-10          1.7361          25.0000        4               
  1.560e-10          1.7361          25.0000        4               
  1.550e-10          1.7361          25.0000        4               
  1.540e-10          1.7361          25.0000        4               
  1.530e-10          1.7361          25.0000        4               
  1.520e-10          1.7361          25.0000        4               
  1.510e-10          1.7361          25.0000        4               
  1.500e-10          1.7361          25.0000        4               
  1.490e-10          1.7361          25.0000        4               
  1.480e-10          1.7361          25.0000        4               
  1.470e-10          1.7361          25.0000        4               
  1.460e-10          1.7361          25.0000        4               
  1.450e-10          1.7361          25.0000        4               
  1.440e-10          1.7361          25.0000        4               
  1.430e-10          1.7363          25.0000        4               
  1.420e-10          1.7361          25.0000        4               
  1.410e-10          1.7362          25.0000        4               
  1.400e-10          1.7363          25.0000        4               
  1.390e-10          1.7364          25.0000        4               
  1.380e-10          1.7361          25.0000        4               
  1.370e-10          1.7362          25.0000        4               
  1.360e-10          1.7361          25.0000        4               
  1.350e-10          1.7361          25.0000        4               
  1.340e-10          1.7361          25.0000        4               
  1.330e-10          1.7361          25.0000        4               
  1.320e-10          1.7361          25.0000        4               
  1.310e-10          1.7361          25.0000        4               
  1.300e-10          1.7360          25.0000        4               
  1.290e-10          1.7360          25.0000        4               
  1.280e-10          1.7361          25.0000        4               
  1.270e-10          1.7361          25.0000        4               
  1.260e-10          1.7361          25.0000        4               
  1.250e-10          1.7364          25.0000        4               
  1.240e-10          1.7360          25.0000        4               
  1.230e-10          1.7362          25.0000        4               
  1.220e-10          1.7361          25.0000        4               
  1.210e-10          1.7361          25.0000        4               
  1.200e-10          1.7361          25.0000        4               
  1.190e-10          1.7360          25.0000        4               
  1.180e-10          1.7360          25.0000        4               
  1.170e-10          1.7361          25.0000        4               
  1.160e-10          1.7361          25.0000        4               
  1.150e-10          1.7360          25.0000        4               
  1.140e-10          1.7363          25.0000        4               
  1.130e-10          1.7360          25.0000        4               
  1.120e-10          1.7360          25.0000        4               
  1.110e-10          1.7362          25.0000        4               
  1.100e-10          1.7363          25.0000        4               
  1.090e-10          1.7363          25.0000        4               
  1.080e-10          1.7362          25.0000        4               
  1.070e-10          1.7363          25.0000        4               
  1.060e-10          1.7362          25.0000        4               
  1.050e-10          1.7362          25.0000        4               
  1.040e-10          1.7363          25.0000        4               
  1.030e-10          1.7365          25.0000        4               
  1.020e-10          1.7364          25.0000        4               
  1.010e-10          1.7362          25.0000        4               
  1.000e-10          1.7363          25.0000        4               
  9.900e-11          1.7363          25.0000        4               
  9.800e-11          1.7363          25.0000        4               
  9.700e-11          1.7364          25.0000        4               
  9.600e-11          1.7363          25.0000        4               
  9.500e-11          1.7366          25.0000        4               
  9.400e-11          1.7364          25.0000        4               
  9.300e-11          1.7364          25.0000        4               
  9.200e-11          1.7364          25.0000        4               
  9.100e-11          1.7367          25.0000        4               
  9.000e-11          1.7365          25.0000        4               
  8.900e-11          1.7365          25.0000        4               
  8.800e-11          1.7364          25.0000        4               
  8.700e-11          1.7364          25.0000        4               
  8.600e-11          1.7371          25.0000        4               
  8.500e-11          1.7364          25.0000        4               
  8.400e-11          1.7368          25.0000        4               
  8.300e-11          1.7365          25.0000        4               
  8.200e-11          1.7364          25.0000        4               
  8.100e-11          1.7364          25.0000        4               
  8.000e-11          1.7366          25.0000        4               
  7.900e-11          1.7364          25.0000        4               
  7.800e-11          1.7364          25.0000        4               
  7.700e-11          1.7364          25.0000        4               
  7.600e-11          1.7364          25.0000        4               
  7.500e-11          1.7364          25.0000        4               
  7.400e-11          1.7368          25.0000        4               
  7.300e-11          1.7366          25.0000        4               
  7.200e-11          1.7364          25.0000        4               
  7.100e-11          1.7366          25.0000        4               
  7.000e-11          1.7364          25.0000        4               
  6.900e-11          1.7366          25.0000        4               
  6.800e-11          1.7367          25.0000        4               
  6.700e-11          1.7366          25.0000        4               
  6.600e-11          1.7367          25.0000        4               
  6.500e-11          1.7363          25.0000        4               
  6.400e-11          1.7363          25.0000        4               
  6.300e-11          1.7362          25.0000        4               
  6.200e-11          1.7364          25.0000        4               
  6.100e-11          1.7363          25.0000        4               
  6.000e-11          1.7365          25.0000        4               
  5.900e-11          1.7364          25.0000        4               
  5.800e-11          1.7366          25.0000        4               
  5.700e-11          1.7363          25.0000        4               
  5.600e-11          1.7363          25.0000        4               
  5.500e-11          1.7363          25.0000        4               
  5.400e-11          1.7362          25.0000        4               
  5.300e-11          1.7362          25.0000        4               
  5.200e-11          1.7362          25.0000        4               
  5.100e-11          1.7362          25.0000        4               
  5.000e-11          1.7362          25.0000        4               
  4.900e-11          1.7362          25.0000        4               
  4.800e-11          1.7362          25.0000        4               
  4.700e-11          1.7362          25.0000        4               
  4.600e-11          1.7362          25.0000        4               
  4.500e-11          1.7362          25.0000        4               
  4.400e-11          1.7362          25.0000        4               
  4.300e-11          1.7365          25.0000        4               
  4.200e-11          1.7361          25.0000        4               
  4.100e-11          1.7363          25.0000        4               
  4.000e-11          1.7361          25.0000        4               
  3.900e-11          1.7362          25.0000        4               
  3.800e-11          1.7361          25.0000        4               
  3.700e-11          1.7361          25.0000        4               
  3.600e-11          1.7363          25.0000        4               
  3.500e-11          1.7362          25.0000        4               
  3.400e-11          1.7361          25.0000        4               
  3.300e-11          1.7361          25.0000        4               
  3.200e-11          1.7361          25.0000        4               
  3.100e-11          1.7361          25.0000        4               
  3.000e-11          1.7363          25.0000        4               
  2.900e-11          1.7361          25.0000        4               
  2.800e-11          1.7361          25.0000        4               
  2.700e-11          1.7365          25.0000        4               
  2.600e-11          1.7360          25.0000        4               
  2.500e-11          1.7360          25.0000        4               
  2.400e-11          1.7360          25.0000        4               
  2.300e-11          1.7362          25.0000        4               
  2.200e-11          1.7360          25.0000        4               
  2.100e-11          1.7361          25.0000        4               
  2.000e-11          1.7360          25.0000        4               
  1.900e-11          1.7365          25.0000        4               
  1.800e-11          1.7360          25.0000        4               
  1.700e-11          1.7364          25.0000        4               
  1.600e-11          1.7363          25.0000        4               
  1.500e-11          1.7360          25.0000        4               
  1.400e-11          1.7359          25.0000        4               
  1.300e-11          1.7361          25.0000        4               
  1.200e-11          1.7360          25.0000        4               
  1.100e-11          1.7360          25.0000        4               
  1.000e-11          1.7364          25.0000        4               
  9.000e-12          1.7361          25.0000        4               
  8.000e-12          1.7360          25.0000        4               
  7.000e-12          1.7360          25.0000        4               
  6.000e-12          1.7359          25.0000        4               
  5.000e-12          1.7360          25.0000        4               
  4.000e-12          1.7360          25.0000        4               
  3.000e-12          1.7363          25.0000        4               
  2.000e-12          1.7364          25.0000        4               
  1.000e-12          1.7363          25.0000        4               
    0.               1.7360          25.0000        4               
 -1.000e-12          1.7360          25.0000        4               
 -2.000e-12          1.7363          25.0000        4               
 -3.000e-12          1.7362          25.0000        4               
 -4.000e-12          1.7359          25.0000        4               
 -5.000e-12          1.7360          25.0000        4               
 -6.000e-12          1.7359          25.0000        4               
 -7.000e-12          1.7359          25.0000        4               
 -8.000e-12          1.7360          25.0000        4               
 -9.000e-12          1.7360          25.0000        4               
 -1.000e-11          1.7361          25.0000        4               
 -1.100e-11          1.7365          25.0000        4               
 -1.200e-11          1.7365          25.0000        4               
 -1.300e-11          1.7364          25.0000        4               
 -1.400e-11          1.7361          25.0000        4               
 -1.500e-11          1.7360          25.0000        4               
 -1.600e-11          1.7360          25.0000        4               
 -1.700e-11          1.7360          25.0000        4               
 -1.800e-11          1.7364          25.0000        4               
 -1.900e-11          1.7360          25.0000        4               
 -2.000e-11          1.7361          25.0000        4               
 -2.100e-11          1.7362          25.0000        4               
 -2.200e-11          1.7360          25.0000        4               
 -2.300e-11          1.7360          25.0000        4               
 -2.400e-11          1.7360          25.0000        4               
 -2.500e-11          1.7361          25.0000        4               
 -2.600e-11          1.7360          25.0000        4               
 -2.700e-11          1.7361          25.0000        4               
 -2.800e-11          1.7362          25.0000        4               
 -2.900e-11          1.7360          25.0000        4               
 -3.000e-11          1.7359          25.0000        4               
 -3.100e-11          1.7361          25.0000        4               
 -3.200e-11          1.7361          25.0000        4               
 -3.300e-11          1.7360          25.0000        4               
 -3.400e-11          1.7361          25.0000        4               
 -3.500e-11          1.7361          25.0000        4               
 -3.600e-11          1.7361          25.0000        4               
 -3.700e-11          1.7363          25.0000        4               
 -3.800e-11          1.7362          25.0000        4               
 -3.900e-11          1.7364          25.0000        4               
 -4.000e-11          1.7365          25.0000        4               
 -4.100e-11          1.7368          25.0000        4               
 -4.200e-11          1.7374          25.0000        4               
 -4.300e-11          1.7379          25.0000        4               
 -4.400e-11          1.7388          25.0000        4               
 -4.500e-11          1.7405          25.0000        4               
 -4.600e-11          1.7420          25.0000        4               
 -4.700e-11          1.7447          25.0000        4               
 -4.800e-11          1.7473          25.0000        4               
 -4.900e-11          1.7501          25.0000        4               
 -5.000e-11          1.7535          25.0000        4               
 -5.100e-11          1.7580          25.0000        4               
 -5.200e-11       -1.332e-03         25.0000        4               
 -5.300e-11       -1.332e-03         25.0000        4               
 -5.400e-11       -1.348e-03         25.0000        4               
 -5.500e-11       -1.332e-03         25.0000        4               
 -5.600e-11       -1.345e-03         25.0000        4               
 -5.700e-11       -1.348e-03         25.0000        4               
 -5.800e-11       -1.333e-03         25.0000        4               
 -5.900e-11       -1.345e-03         25.0000        4               
 -6.000e-11       -1.345e-03         25.0000        4               
 -6.100e-11       -1.345e-03         25.0000        4               
 -6.200e-11       -1.345e-03         25.0000        4               
 -6.300e-11       -1.345e-03         25.0000        4               
 -6.400e-11       -1.323e-03         25.0000        4               
 -6.500e-11       -1.346e-03         25.0000        4               
 -6.600e-11       -1.343e-03         25.0000        4               
 -6.700e-11       -1.345e-03         25.0000        4               
 -6.800e-11       -1.343e-03         25.0000        4               
 -6.900e-11       -1.344e-03         25.0000        4               
 -7.000e-11       -1.342e-03         25.0000        4               
 -7.100e-11       -1.324e-03         25.0000        4               
 -7.200e-11       -1.344e-03         25.0000        4               
 -7.300e-11       -1.339e-03         25.0000        4               
 -7.400e-11       -1.347e-03         25.0000        4               
 -7.500e-11       -1.332e-03         25.0000        4               
 -7.600e-11       -1.343e-03         25.0000        4               
 -7.700e-11       -1.332e-03         25.0000        4               
 -7.800e-11       -1.348e-03         25.0000        4               
 -7.900e-11       -1.344e-03         25.0000        4               
 -8.000e-11       -1.345e-03         25.0000        4               
 -8.100e-11       -1.348e-03         25.0000        4               
 -8.200e-11       -1.344e-03         25.0000        4               
 -8.300e-11       -1.345e-03         25.0000        4               
 -8.400e-11       -1.345e-03         25.0000        4               
 -8.500e-11       -1.332e-03         25.0000        4               
 -8.600e-11       -1.324e-03         25.0000        4               
 -8.700e-11       -1.345e-03         25.0000        4               
 -8.800e-11       -1.330e-03         25.0000        4               
 -8.900e-11       -1.346e-03         25.0000        4               
 -9.000e-11       -1.344e-03         25.0000        4               
 -9.100e-11       -1.343e-03         25.0000        4               
 -9.200e-11       -1.342e-03         25.0000        4               
 -9.300e-11       -1.344e-03         25.0000        4               
 -9.400e-11       -1.345e-03         25.0000        4               
 -9.500e-11       -1.348e-03         25.0000        4               
 -9.600e-11       -1.344e-03         25.0000        4               
 -9.700e-11       -1.343e-03         25.0000        4               
 -9.800e-11       -1.342e-03         25.0000        4               
 -9.900e-11       -1.341e-03         25.0000        4               
 -1.000e-10       -1.338e-03         25.0000        4               